/*---------------------------------------------------------------------------*\
| =========                 |                                                 |
| \\      /  F ield         | OpenFOAM: The Open Source CFD Toolbox           |
|  \\    /   O peration     | Version:  2406                                  |
|   \\  /    A nd           | Website:  www.openfoam.com                      |
|    \\/     M anipulation  |                                                 |
\*---------------------------------------------------------------------------*/
Build  : _be01ca78-20240625 OPENFOAM=2406 version=2406
Arch   : "LSB;label=32;scalar=64"
Exec   : rhoPimpleFoam
Date   : Nov 12 2024
Time   : 23:32:01
Host   : DESKTOP-QF1PE18
PID    : 495
I/O    : uncollated
Case   : /home/remcovw/openfoam/GITHUB/rhoPimpleFoam_yplus40_omega98_0
nProcs : 1
trapFpe: Floating point exception trapping enabled (FOAM_SIGFPE).
fileModificationChecking : Monitoring run-time modified files using timeStampMaster (fileModificationSkew 5, maxFileModificationPolls 20)
allowSystemOperations : Allowing user-supplied system call operations

// * * * * * * * * * * * * * * * * * * * * * * * * * * * * * * * * * * * * * //
Create time

Create mesh for time = 0


PIMPLE: Operating solver in PISO mode

Reading thermophysical properties

Selecting thermodynamics package
{
    type            hePsiThermo;
    mixture         pureMixture;
    transport       sutherland;
    thermo          hConst;
    equationOfState perfectGas;
    specie          specie;
    energy          sensibleInternalEnergy;
}

Reading field U

Reading/calculating face flux field phi

pressureControl
    pMax 205841.74
    pMin 10132.5

Creating turbulence model

Selecting turbulence model type RAS
Selecting RAS turbulence model kOmega
RAS
{
    RASModel        kOmega;
    turbulence      on;
    printCoeffs     on;
    betaStar        0.09;
    beta            0.072;
    gamma           0.52;
    alphaK          0.5;
    alphaOmega      0.5;
}

Creating field dpdt

Creating field kinetic energy K

No MRF models present

Creating finite volume options from "system/fvOptions"

Selecting finite volume options type limitTemperature
    Source: limitT
    - selecting all cells
    - selected 8260 cell(s) with volume 0.059551356
Courant Number mean: 0.2623036 max: 6.0855087
fieldAverage fieldAverage1:
    Restarting averaging for fields:
        U: starting averaging at time 0
        p: starting averaging at time 0
        nut: starting averaging at time 0

forceCoeffs forces:
    p: p
    U: U
    rho: rhoInf
    Freestream density (rhoInf) set to 1
    Not including porosity effects
    magUInf: 51.471881
    lRef   : 0.011697521
    Aref   : 0.011697521
    rhoInf : 1
    Selecting all coefficients
    - Drag force: Cd
    - Drag force front: Cd(f)
    - Drag force rear: Cd(r)
    - Lift force: Cl
    - Lift force front: Cl(f)
    - Lift force rear: Cl(r)
    - Pitch moment: CmPitch
    - Roll moment: CmRoll
    - Yaw moment: CmYaw
    - Side force: Cs
    - Side force front: Cs(f)
    - Side force rear: Cs(r)


--> FOAM Warning :
    From void Foam::cloudSet::calcSamples(Foam::DynamicList<Foam::Vector<double> >&, Foam::DynamicList<int>&, Foam::DynamicList<int>&, Foam::DynamicList<int>&, Foam::DynamicList<double>&) const
    in file sampledSet/cloud/cloudSet.C at line 128
    For sample set top did not found 256 points out of 256
Print missing points by setting the debug flag for cloud
--> FOAM Warning :
    From void Foam::cloudSet::calcSamples(Foam::DynamicList<Foam::Vector<double> >&, Foam::DynamicList<int>&, Foam::DynamicList<int>&, Foam::DynamicList<int>&, Foam::DynamicList<double>&) const
    in file sampledSet/cloud/cloudSet.C at line 128
    For sample set bottom did not found 256 points out of 256
Print missing points by setting the debug flag for cloud
--> FOAM Warning :
    From Foam::autoPtr<Foam::coordSet> Foam::coordSet::gatherSort(Foam::labelList&) const
    in file coordSet/coordSet.C at line 223
    Gathered empty coordSet: top
--> FOAM Warning :
    From Foam::autoPtr<Foam::coordSet> Foam::coordSet::gatherSort(Foam::labelList&) const
    in file coordSet/coordSet.C at line 223
    Gathered empty coordSet: bottom
Sampled set:
    top -> raw
    bottom -> raw


Starting time loop

Courant Number mean: 0.038802307 max: 0.90022317
deltaT = 2.9585799e-06
Time = 2.95858e-06

PIMPLE: iteration 1
diagonal:  Solving for rho, Initial residual = 0, Final residual = 0, No Iterations 0
DILUPBiCGStab:  Solving for Ux, Initial residual = 1, Final residual = 2.5926498e-07, No Iterations 3
DILUPBiCGStab:  Solving for Uy, Initial residual = 1, Final residual = 4.5765721e-07, No Iterations 3
DILUPBiCGStab:  Solving for e, Initial residual = 1, Final residual = 5.632155e-08, No Iterations 3
limitTemperature=limitT, Type=Lower, LimitedCells=0, CellsPercent=0, Tmin=101, UnlimitedTmin=293
limitTemperature=limitT, Type=Upper, LimitedCells=0, CellsPercent=0, Tmax=1000, UnlimitedTmax=293
GAMG:  Solving for p, Initial residual = 1, Final residual = 0.005589407, No Iterations 3
GAMG:  Solving for p, Initial residual = 0.0021359226, Final residual = 5.3809078e-06, No Iterations 3
diagonal:  Solving for rho, Initial residual = 0, Final residual = 0, No Iterations 0
time step continuity errors : sum local = 1.0749356e-08, global = -3.8097639e-10, cumulative = -3.8097639e-10
GAMG:  Solving for p, Initial residual = 0.027634751, Final residual = 0.00011351541, No Iterations 3
GAMG:  Solving for p, Initial residual = 0.00052757426, Final residual = 1.6339936e-07, No Iterations 4
diagonal:  Solving for rho, Initial residual = 0, Final residual = 0, No Iterations 0
time step continuity errors : sum local = 2.957193e-10, global = 7.1342909e-12, cumulative = -3.738421e-10
DILUPBiCGStab:  Solving for omega, Initial residual = 0.0049453106, Final residual = 7.0928076e-07, No Iterations 1
DILUPBiCGStab:  Solving for k, Initial residual = 1, Final residual = 3.6181268e-07, No Iterations 2
ExecutionTime = 0.22 s  ClockTime = 0 s

forceCoeffs forces write:
    Coefficient	Total	Pressure	Viscous	Internal
    Cd:	27.976871	27.899821	0.077050368	0
    Cd(f):	15.424347	15.398561	0.025785317	0
    Cd(r):	12.552524	12.501259	0.051265052	0
    Cl:	-0.0335932	-0.033891249	0.00029804973	0
    Cl(f):	-0.017766732	-0.016945625	-0.00082110739	0
    Cl(r):	-0.015826467	-0.016945625	0.0011191571	0
    CmPitch:	-0.00097013226	-5.3867778e-13	-0.00097013226	0
    CmRoll:	1.4359111	1.448651	-0.012739868	0
    CmYaw:	1195.8462	1192.5527	3.2934487	0
    Cs:	-8.5476362e-20	-8.5315568e-20	-1.6079438e-22	0
    Cs(f):	1195.8462	1192.5527	3.2934487	0
    Cs(r):	-1195.8462	-1192.5527	-3.2934487	0

    writing force and moment coefficient files.

Courant Number mean: 0.03858711 max: 0.81812612
deltaT = 3.2583053e-06
Time = 6.21689e-06

PIMPLE: iteration 1
diagonal:  Solving for rho, Initial residual = 0, Final residual = 0, No Iterations 0
DILUPBiCGStab:  Solving for Ux, Initial residual = 0.018713123, Final residual = 5.4489233e-08, No Iterations 2
DILUPBiCGStab:  Solving for Uy, Initial residual = 0.27124823, Final residual = 7.3407094e-08, No Iterations 3
DILUPBiCGStab:  Solving for e, Initial residual = 0.020762636, Final residual = 5.1643456e-07, No Iterations 2
limitTemperature=limitT, Type=Lower, LimitedCells=0, CellsPercent=0, Tmin=101, UnlimitedTmin=188.26399
limitTemperature=limitT, Type=Upper, LimitedCells=0, CellsPercent=0, Tmax=1000, UnlimitedTmax=331.68405
GAMG:  Solving for p, Initial residual = 0.13295744, Final residual = 0.00048575686, No Iterations 3
GAMG:  Solving for p, Initial residual = 0.0061332544, Final residual = 1.3123793e-05, No Iterations 3
diagonal:  Solving for rho, Initial residual = 0, Final residual = 0, No Iterations 0
time step continuity errors : sum local = 1.8202697e-08, global = 5.3662131e-10, cumulative = 1.6277921e-10
GAMG:  Solving for p, Initial residual = 0.032017592, Final residual = 0.00018116928, No Iterations 3
GAMG:  Solving for p, Initial residual = 0.00098346492, Final residual = 3.0711319e-07, No Iterations 4
diagonal:  Solving for rho, Initial residual = 0, Final residual = 0, No Iterations 0
time step continuity errors : sum local = 4.2952325e-10, global = -8.7382094e-12, cumulative = 1.54041e-10
DILUPBiCGStab:  Solving for omega, Initial residual = 0.0004826451, Final residual = 2.5997186e-07, No Iterations 1
DILUPBiCGStab:  Solving for k, Initial residual = 0.0062882961, Final residual = 2.5448783e-07, No Iterations 2
ExecutionTime = 0.28 s  ClockTime = 0 s

forceCoeffs forces write:
    Coefficient	Total	Pressure	Viscous	Internal
    Cd:	25.410913	25.353593	0.057319867	0
    Cd(f):	11.96768	11.95869	0.0089899762	0
    Cd(r):	13.443233	13.394903	0.048329891	0
    Cl:	0.017260312	0.016800132	0.00046017946	0
    Cl(f):	0.0074650674	0.0084000661	-0.00093499871	0
    Cl(r):	0.0097952442	0.0084000661	0.0013951782	0
    CmPitch:	-0.0011650884	2.03821e-11	-0.0011650884	0
    CmRoll:	-0.7377765	-0.71810654	-0.019669957	0
    CmYaw:	1086.1666	1083.7165	2.4500862	0
    Cs:	-8.6105413e-20	-8.5996561e-20	-1.0885224e-22	0
    Cs(f):	1086.1666	1083.7165	2.4500862	0
    Cs(r):	-1086.1666	-1083.7165	-2.4500862	0

    writing force and moment coefficient files.

Courant Number mean: 0.042322296 max: 0.83237232
deltaT = 3.5240536e-06
Time = 9.74094e-06

PIMPLE: iteration 1
diagonal:  Solving for rho, Initial residual = 0, Final residual = 0, No Iterations 0
DILUPBiCGStab:  Solving for Ux, Initial residual = 0.007324483, Final residual = 7.2914683e-08, No Iterations 2
DILUPBiCGStab:  Solving for Uy, Initial residual = 0.18797413, Final residual = 3.7444765e-07, No Iterations 3
DILUPBiCGStab:  Solving for e, Initial residual = 0.0165275, Final residual = 1.2374877e-07, No Iterations 3
limitTemperature=limitT, Type=Lower, LimitedCells=0, CellsPercent=0, Tmin=101, UnlimitedTmin=224.20728
limitTemperature=limitT, Type=Upper, LimitedCells=0, CellsPercent=0, Tmax=1000, UnlimitedTmax=337.81349
GAMG:  Solving for p, Initial residual = 0.11096922, Final residual = 0.00044188356, No Iterations 3
GAMG:  Solving for p, Initial residual = 0.0052364918, Final residual = 1.751281e-05, No Iterations 3
diagonal:  Solving for rho, Initial residual = 0, Final residual = 0, No Iterations 0
time step continuity errors : sum local = 3.1064101e-08, global = 5.5011061e-10, cumulative = 7.0415161e-10
GAMG:  Solving for p, Initial residual = 0.014283873, Final residual = 8.9195759e-05, No Iterations 3
GAMG:  Solving for p, Initial residual = 0.00083642335, Final residual = 4.1605149e-07, No Iterations 4
diagonal:  Solving for rho, Initial residual = 0, Final residual = 0, No Iterations 0
time step continuity errors : sum local = 6.7482586e-10, global = -5.7070099e-12, cumulative = 6.984446e-10
DILUPBiCGStab:  Solving for omega, Initial residual = 0.00028149122, Final residual = 2.1616265e-07, No Iterations 1
DILUPBiCGStab:  Solving for k, Initial residual = 0.0029554207, Final residual = 2.3584753e-07, No Iterations 2
ExecutionTime = 0.31 s  ClockTime = 0 s

forceCoeffs forces write:
    Coefficient	Total	Pressure	Viscous	Internal
    Cd:	20.629611	20.576567	0.053043501	0
    Cd(f):	10.193262	10.19746	-0.004198213	0
    Cd(r):	10.436349	10.379107	0.057241714	0
    Cl:	0.002843516	0.0021248212	0.00071869481	0
    Cl(f):	1.0074426e-05	0.0010624106	-0.0010523362	0
    Cl(r):	0.0028334416	0.0010624106	0.001771031	0
    CmPitch:	-0.0014116836	-1.2719425e-11	-0.0014116836	0
    CmRoll:	-0.12154354	-0.090823573	-0.030719963	0
    CmYaw:	881.79415	879.52685	2.2672967	0
    Cs:	-8.6180091e-20	-8.598814e-20	-1.9195108e-22	0
    Cs(f):	881.79415	879.52685	2.2672967	0
    Cs(r):	-881.79415	-879.52685	-2.2672967	0

    writing force and moment coefficient files.

Courant Number mean: 0.045676075 max: 0.90399235
deltaT = 3.511557e-06
Time = 1.32525e-05

PIMPLE: iteration 1
diagonal:  Solving for rho, Initial residual = 0, Final residual = 0, No Iterations 0
DILUPBiCGStab:  Solving for Ux, Initial residual = 0.0060058672, Final residual = 1.1376832e-07, No Iterations 2
DILUPBiCGStab:  Solving for Uy, Initial residual = 0.13831395, Final residual = 2.8913333e-07, No Iterations 3
DILUPBiCGStab:  Solving for e, Initial residual = 0.016089277, Final residual = 2.3784461e-07, No Iterations 3
limitTemperature=limitT, Type=Lower, LimitedCells=0, CellsPercent=0, Tmin=101, UnlimitedTmin=218.01081
limitTemperature=limitT, Type=Upper, LimitedCells=0, CellsPercent=0, Tmax=1000, UnlimitedTmax=333.71817
GAMG:  Solving for p, Initial residual = 0.096026434, Final residual = 0.00019123947, No Iterations 3
GAMG:  Solving for p, Initial residual = 0.0041868758, Final residual = 1.0306497e-05, No Iterations 3
diagonal:  Solving for rho, Initial residual = 0, Final residual = 0, No Iterations 0
time step continuity errors : sum local = 2.1923273e-08, global = 3.966731e-11, cumulative = 7.3811191e-10
GAMG:  Solving for p, Initial residual = 0.0084700566, Final residual = 2.1207246e-05, No Iterations 3
GAMG:  Solving for p, Initial residual = 0.00052718851, Final residual = 1.8469115e-07, No Iterations 4
diagonal:  Solving for rho, Initial residual = 0, Final residual = 0, No Iterations 0
time step continuity errors : sum local = 3.6744251e-10, global = 1.8962954e-12, cumulative = 7.4000821e-10
DILUPBiCGStab:  Solving for omega, Initial residual = 0.00031586465, Final residual = 2.458058e-07, No Iterations 1
DILUPBiCGStab:  Solving for k, Initial residual = 0.0024866223, Final residual = 2.0808678e-07, No Iterations 2
ExecutionTime = 0.34 s  ClockTime = 0 s

forceCoeffs forces write:
    Coefficient	Total	Pressure	Viscous	Internal
    Cd:	16.120083	16.074611	0.045472671	0
    Cd(f):	7.9723104	7.9829469	-0.010636537	0
    Cd(r):	8.1477731	8.0916639	0.056109207	0
    Cl:	0.0020524789	0.0012717192	0.00078075972	0
    Cl(f):	-0.00049854606	0.00063585958	-0.0011344056	0
    Cl(r):	0.002551025	0.00063585964	0.0019151654	0
    CmPitch:	-0.0015247855	-2.9073302e-11	-0.0015247855	0
    CmRoll:	-0.087731366	-0.054358494	-0.033372872	0
    CmYaw:	689.03847	687.09478	1.9436884	0
    Cs:	-8.6357883e-20	-8.6135038e-20	-2.2284464e-22	0
    Cs(f):	689.03847	687.09478	1.9436884	0
    Cs(r):	-689.03847	-687.09478	-1.9436884	0

    writing force and moment coefficient files.

Courant Number mean: 0.045510086 max: 0.91060496
deltaT = 3.474463e-06
Time = 1.6727e-05

PIMPLE: iteration 1
diagonal:  Solving for rho, Initial residual = 0, Final residual = 0, No Iterations 0
DILUPBiCGStab:  Solving for Ux, Initial residual = 0.0056553579, Final residual = 1.222003e-07, No Iterations 2
DILUPBiCGStab:  Solving for Uy, Initial residual = 0.10724439, Final residual = 2.8453615e-07, No Iterations 3
DILUPBiCGStab:  Solving for e, Initial residual = 0.016061836, Final residual = 3.186765e-07, No Iterations 3
limitTemperature=limitT, Type=Lower, LimitedCells=0, CellsPercent=0, Tmin=101, UnlimitedTmin=234.88223
limitTemperature=limitT, Type=Upper, LimitedCells=0, CellsPercent=0, Tmax=1000, UnlimitedTmax=330.06632
GAMG:  Solving for p, Initial residual = 0.07321924, Final residual = 0.00063676045, No Iterations 2
GAMG:  Solving for p, Initial residual = 0.0031690537, Final residual = 8.5351502e-06, No Iterations 3
diagonal:  Solving for rho, Initial residual = 0, Final residual = 0, No Iterations 0
time step continuity errors : sum local = 2.3286208e-08, global = -2.2661855e-10, cumulative = 5.1338966e-10
GAMG:  Solving for p, Initial residual = 0.0047923458, Final residual = 1.4500967e-05, No Iterations 3
GAMG:  Solving for p, Initial residual = 0.00034549252, Final residual = 5.6215253e-07, No Iterations 3
diagonal:  Solving for rho, Initial residual = 0, Final residual = 0, No Iterations 0
time step continuity errors : sum local = 1.4832846e-09, global = 3.8352445e-11, cumulative = 5.5174211e-10
DILUPBiCGStab:  Solving for omega, Initial residual = 0.00027425349, Final residual = 2.5526996e-07, No Iterations 1
DILUPBiCGStab:  Solving for k, Initial residual = 0.0022239798, Final residual = 2.1498019e-07, No Iterations 2
ExecutionTime = 0.38 s  ClockTime = 0 s

forceCoeffs forces write:
    Coefficient	Total	Pressure	Viscous	Internal
    Cd:	13.631766	13.589234	0.042532612	0
    Cd(f):	6.6341642	6.6457789	-0.011614712	0
    Cd(r):	6.9976023	6.943455	0.054147324	0
    Cl:	0.0042513251	0.0034820724	0.00076925278	0
    Cl(f):	0.00050891522	0.0017410362	-0.0012321209	0
    Cl(r):	0.0037424099	0.0017410362	0.0020013737	0
    CmPitch:	-0.0016167473	-2.9106421e-11	-0.0016167473	0
    CmRoll:	-0.18171907	-0.14883805	-0.032881018	0
    CmYaw:	582.6776	580.85958	1.8180183	0
    Cs:	-8.620387e-20	-8.6013666e-20	-1.9020344e-22	0
    Cs(f):	582.6776	580.85958	1.8180183	0
    Cs(r):	-582.6776	-580.85958	-1.8180183	0

    writing force and moment coefficient files.

Courant Number mean: 0.045083359 max: 0.93405762
deltaT = 3.3444661e-06
Time = 2.00714e-05

PIMPLE: iteration 1
diagonal:  Solving for rho, Initial residual = 0, Final residual = 0, No Iterations 0
DILUPBiCGStab:  Solving for Ux, Initial residual = 0.0056149545, Final residual = 1.3109665e-07, No Iterations 2
DILUPBiCGStab:  Solving for Uy, Initial residual = 0.07693382, Final residual = 2.1185103e-07, No Iterations 3
DILUPBiCGStab:  Solving for e, Initial residual = 0.015019296, Final residual = 2.8610244e-07, No Iterations 3
limitTemperature=limitT, Type=Lower, LimitedCells=0, CellsPercent=0, Tmin=101, UnlimitedTmin=239.60104
limitTemperature=limitT, Type=Upper, LimitedCells=0, CellsPercent=0, Tmax=1000, UnlimitedTmax=326.46221
GAMG:  Solving for p, Initial residual = 0.051998291, Final residual = 0.00030330369, No Iterations 2
GAMG:  Solving for p, Initial residual = 0.0020701073, Final residual = 4.8139345e-06, No Iterations 3
diagonal:  Solving for rho, Initial residual = 0, Final residual = 0, No Iterations 0
time step continuity errors : sum local = 1.6212147e-08, global = -5.6594699e-10, cumulative = -1.4204881e-11
GAMG:  Solving for p, Initial residual = 0.0029932612, Final residual = 5.976722e-06, No Iterations 3
GAMG:  Solving for p, Initial residual = 0.00020596878, Final residual = 2.9459795e-07, No Iterations 3
diagonal:  Solving for rho, Initial residual = 0, Final residual = 0, No Iterations 0
time step continuity errors : sum local = 9.7672973e-10, global = 2.5077399e-11, cumulative = 1.0872518e-11
DILUPBiCGStab:  Solving for omega, Initial residual = 0.00024067881, Final residual = 2.603582e-07, No Iterations 1
DILUPBiCGStab:  Solving for k, Initial residual = 0.0019874106, Final residual = 2.1402463e-07, No Iterations 2
ExecutionTime = 0.42 s  ClockTime = 0 s

forceCoeffs forces write:
    Coefficient	Total	Pressure	Viscous	Internal
    Cd:	11.849014	11.80824	0.040774083	0
    Cd(f):	5.9802176	5.9885768	-0.0083592311	0
    Cd(r):	5.8687964	5.8196631	0.049133314	0
    Cl:	-0.0013033516	-0.0019758719	0.00067252024	0
    Cl(f):	-0.0023067515	-0.00098793598	-0.0013188155	0
    Cl(r):	0.0010033999	-0.0009879359	0.0019913358	0
    CmPitch:	-0.0016550757	-3.9367866e-11	-0.0016550756	0
    CmRoll:	0.055710594	0.084456866	-0.028746273	0
    CmYaw:	506.47544	504.73259	1.7428515	0
    Cs:	-8.612853e-20	-8.5897711e-20	-2.3081807e-22	0
    Cs(f):	506.47544	504.73259	1.7428515	0
    Cs(r):	-506.47544	-504.73259	-1.7428515	0

    writing force and moment coefficient files.

Courant Number mean: 0.043462984 max: 0.9158345
deltaT = 3.2883509e-06
Time = 2.33598e-05

PIMPLE: iteration 1
diagonal:  Solving for rho, Initial residual = 0, Final residual = 0, No Iterations 0
DILUPBiCGStab:  Solving for Ux, Initial residual = 0.0058283808, Final residual = 1.6061456e-07, No Iterations 2
DILUPBiCGStab:  Solving for Uy, Initial residual = 0.054558521, Final residual = 1.6222575e-07, No Iterations 3
DILUPBiCGStab:  Solving for e, Initial residual = 0.013984315, Final residual = 3.1500187e-07, No Iterations 3
limitTemperature=limitT, Type=Lower, LimitedCells=0, CellsPercent=0, Tmin=101, UnlimitedTmin=243.139
limitTemperature=limitT, Type=Upper, LimitedCells=0, CellsPercent=0, Tmax=1000, UnlimitedTmax=323.74541
GAMG:  Solving for p, Initial residual = 0.03947332, Final residual = 0.00018229545, No Iterations 2
GAMG:  Solving for p, Initial residual = 0.0014672006, Final residual = 3.2013029e-06, No Iterations 3
diagonal:  Solving for rho, Initial residual = 0, Final residual = 0, No Iterations 0
time step continuity errors : sum local = 1.2780423e-08, global = -1.2601938e-10, cumulative = -1.1514686e-10
GAMG:  Solving for p, Initial residual = 0.0020145144, Final residual = 1.6250135e-05, No Iterations 2
GAMG:  Solving for p, Initial residual = 0.00014436872, Final residual = 2.1951307e-07, No Iterations 3
diagonal:  Solving for rho, Initial residual = 0, Final residual = 0, No Iterations 0
time step continuity errors : sum local = 8.7013745e-10, global = 1.6266007e-11, cumulative = -9.8880854e-11
DILUPBiCGStab:  Solving for omega, Initial residual = 0.00022573171, Final residual = 2.9123157e-07, No Iterations 1
DILUPBiCGStab:  Solving for k, Initial residual = 0.0018762571, Final residual = 2.447355e-07, No Iterations 2
ExecutionTime = 0.45 s  ClockTime = 0 s

forceCoeffs forces write:
    Coefficient	Total	Pressure	Viscous	Internal
    Cd:	10.446479	10.406747	0.039731971	0
    Cd(f):	5.8479285	5.8532013	-0.0052728137	0
    Cd(r):	4.5985501	4.5535453	0.045004784	0
    Cl:	-0.014614629	-0.015202753	0.00058812324	0
    Cl(f):	-0.0089810714	-0.0076013764	-0.001379695	0
    Cl(r):	-0.005633558	-0.0076013763	0.0019678182	0
    CmPitch:	-0.0016737567	-3.7196751e-11	-0.0016737566	0
    CmRoll:	0.62468919	0.64982799	-0.025138799	0
    CmYaw:	446.52533	444.82702	1.6983074	0
    Cs:	-8.6000904e-20	-8.5821614e-20	-1.792898e-22	0
    Cs(f):	446.52533	444.82702	1.6983074	0
    Cs(r):	-446.52533	-444.82702	-1.6983074	0

    writing force and moment coefficient files.

Courant Number mean: 0.042804376 max: 0.91306481
deltaT = 3.2446519e-06
Time = 2.66044e-05

PIMPLE: iteration 1
diagonal:  Solving for rho, Initial residual = 0, Final residual = 0, No Iterations 0
DILUPBiCGStab:  Solving for Ux, Initial residual = 0.0061927237, Final residual = 1.9736576e-07, No Iterations 2
DILUPBiCGStab:  Solving for Uy, Initial residual = 0.041409751, Final residual = 1.6670276e-07, No Iterations 3
DILUPBiCGStab:  Solving for e, Initial residual = 0.012980389, Final residual = 3.7911663e-07, No Iterations 3
limitTemperature=limitT, Type=Lower, LimitedCells=0, CellsPercent=0, Tmin=101, UnlimitedTmin=245.80022
limitTemperature=limitT, Type=Upper, LimitedCells=0, CellsPercent=0, Tmax=1000, UnlimitedTmax=321.212
GAMG:  Solving for p, Initial residual = 0.032145396, Final residual = 0.00013343314, No Iterations 2
GAMG:  Solving for p, Initial residual = 0.0011148655, Final residual = 2.5316306e-06, No Iterations 3
diagonal:  Solving for rho, Initial residual = 0, Final residual = 0, No Iterations 0
time step continuity errors : sum local = 1.1583758e-08, global = -4.5401123e-11, cumulative = -1.4428198e-10
GAMG:  Solving for p, Initial residual = 0.0014669709, Final residual = 1.0176383e-05, No Iterations 2
GAMG:  Solving for p, Initial residual = 9.9158181e-05, Final residual = 1.8847301e-07, No Iterations 3
diagonal:  Solving for rho, Initial residual = 0, Final residual = 0, No Iterations 0
time step continuity errors : sum local = 8.5961395e-10, global = 1.4952087e-11, cumulative = -1.2932989e-10
DILUPBiCGStab:  Solving for omega, Initial residual = 0.00021215572, Final residual = 3.2936678e-07, No Iterations 1
DILUPBiCGStab:  Solving for k, Initial residual = 0.0017694672, Final residual = 2.9024832e-07, No Iterations 2
ExecutionTime = 0.48 s  ClockTime = 0 s

forceCoeffs forces write:
    Coefficient	Total	Pressure	Viscous	Internal
    Cd:	9.2398803	9.2010532	0.038827105	0
    Cd(f):	6.0365154	6.0424982	-0.0059828315	0
    Cd(r):	3.2033649	3.1585549	0.044809937	0
    Cl:	-0.033140837	-0.033734987	0.00059414945	0
    Cl(f):	-0.018244196	-0.016867493	-0.0013767029	0
    Cl(r):	-0.014896641	-0.016867493	0.0019708523	0
    CmPitch:	-0.0016737776	-2.6479608e-11	-0.0016737776	0
    CmRoll:	1.4165753	1.4419717	-0.025396384	0
    CmYaw:	394.95037	393.29074	1.6596297	0
    Cs:	-8.5871455e-20	-8.5812127e-20	-5.9327689e-23	0
    Cs(f):	394.95037	393.29074	1.6596297	0
    Cs(r):	-394.95037	-393.29074	-1.6596297	0

    writing force and moment coefficient files.

Courant Number mean: 0.042313207 max: 0.90999902
deltaT = 3.2125266e-06
Time = 2.9817e-05

PIMPLE: iteration 1
diagonal:  Solving for rho, Initial residual = 0, Final residual = 0, No Iterations 0
DILUPBiCGStab:  Solving for Ux, Initial residual = 0.0067162926, Final residual = 2.3955561e-07, No Iterations 2
DILUPBiCGStab:  Solving for Uy, Initial residual = 0.032957351, Final residual = 1.5743831e-07, No Iterations 3
DILUPBiCGStab:  Solving for e, Initial residual = 0.012244467, Final residual = 4.3198832e-07, No Iterations 3
limitTemperature=limitT, Type=Lower, LimitedCells=0, CellsPercent=0, Tmin=101, UnlimitedTmin=248.15949
limitTemperature=limitT, Type=Upper, LimitedCells=0, CellsPercent=0, Tmax=1000, UnlimitedTmax=318.86469
GAMG:  Solving for p, Initial residual = 0.027635961, Final residual = 9.7268422e-05, No Iterations 2
GAMG:  Solving for p, Initial residual = 0.00087493087, Final residual = 1.8437999e-06, No Iterations 3
diagonal:  Solving for rho, Initial residual = 0, Final residual = 0, No Iterations 0
time step continuity errors : sum local = 9.4244412e-09, global = -2.9398652e-12, cumulative = -1.3226975e-10
GAMG:  Solving for p, Initial residual = 0.0011673885, Final residual = 7.457817e-06, No Iterations 2
GAMG:  Solving for p, Initial residual = 6.7307645e-05, Final residual = 7.4094341e-07, No Iterations 2
diagonal:  Solving for rho, Initial residual = 0, Final residual = 0, No Iterations 0
time step continuity errors : sum local = 3.7847447e-09, global = -9.8885538e-11, cumulative = -2.3115529e-10
DILUPBiCGStab:  Solving for omega, Initial residual = 0.00020291746, Final residual = 3.6605775e-07, No Iterations 1
DILUPBiCGStab:  Solving for k, Initial residual = 0.0016850429, Final residual = 3.178548e-07, No Iterations 2
ExecutionTime = 0.51 s  ClockTime = 1 s

forceCoeffs forces write:
    Coefficient	Total	Pressure	Viscous	Internal
    Cd:	8.2081989	8.170039	0.038159852	0
    Cd(f):	6.4986764	6.504467	-0.0057905802	0
    Cd(r):	1.7095225	1.665572	0.043950432	0
    Cl:	-0.056021227	-0.056603074	0.00058184652	0
    Cl(f):	-0.029659747	-0.028301537	-0.0013582105	0
    Cl(r):	-0.02636148	-0.028301537	0.001940057	0
    CmPitch:	-0.0016491338	-1.2623955e-11	-0.0016491337	0
    CmRoll:	2.394577	2.4194475	-0.024870506	0
    CmYaw:	350.85208	349.22097	1.6311085	0
    Cs:	-8.6032905e-20	-8.5916915e-20	-1.1598911e-22	0
    Cs(f):	350.85208	349.22097	1.6311085	0
    Cs(r):	-350.85208	-349.22097	-1.6311085	0

    writing force and moment coefficient files.

Courant Number mean: 0.041964809 max: 0.90540506
deltaT = 3.1913916e-06
Time = 3.30083e-05

PIMPLE: iteration 1
diagonal:  Solving for rho, Initial residual = 0, Final residual = 0, No Iterations 0
DILUPBiCGStab:  Solving for Ux, Initial residual = 0.0073944008, Final residual = 2.7802297e-07, No Iterations 2
DILUPBiCGStab:  Solving for Uy, Initial residual = 0.027884632, Final residual = 1.3414288e-07, No Iterations 3
DILUPBiCGStab:  Solving for e, Initial residual = 0.01180274, Final residual = 4.6016318e-07, No Iterations 3
limitTemperature=limitT, Type=Lower, LimitedCells=0, CellsPercent=0, Tmin=101, UnlimitedTmin=250.23336
limitTemperature=limitT, Type=Upper, LimitedCells=0, CellsPercent=0, Tmax=1000, UnlimitedTmax=316.65258
GAMG:  Solving for p, Initial residual = 0.024484357, Final residual = 6.8771994e-05, No Iterations 2
GAMG:  Solving for p, Initial residual = 0.00071094276, Final residual = 1.3279187e-06, No Iterations 3
diagonal:  Solving for rho, Initial residual = 0, Final residual = 0, No Iterations 0
time step continuity errors : sum local = 7.4452256e-09, global = 9.1870916e-11, cumulative = -1.3928438e-10
GAMG:  Solving for p, Initial residual = 0.00095716168, Final residual = 5.2751992e-06, No Iterations 2
GAMG:  Solving for p, Initial residual = 4.7284971e-05, Final residual = 4.9249153e-07, No Iterations 2
diagonal:  Solving for rho, Initial residual = 0, Final residual = 0, No Iterations 0
time step continuity errors : sum local = 2.763309e-09, global = -1.0654369e-10, cumulative = -2.4582806e-10
DILUPBiCGStab:  Solving for omega, Initial residual = 0.00019713398, Final residual = 4.068518e-07, No Iterations 1
DILUPBiCGStab:  Solving for k, Initial residual = 0.0015945214, Final residual = 3.4733263e-07, No Iterations 2
ExecutionTime = 0.55 s  ClockTime = 1 s

forceCoeffs forces write:
    Coefficient	Total	Pressure	Viscous	Internal
    Cd:	7.3940414	7.3559374	0.038103932	0
    Cd(f):	7.3423212	7.3482841	-0.0059629068	0
    Cd(r):	0.051720185	0.0076533463	0.044066839	0
    Cl:	-0.085281956	-0.08586718	0.00058522398	0
    Cl(f):	-0.044152719	-0.04293359	-0.0012191289	0
    Cl(r):	-0.041129237	-0.04293359	0.0018043529	0
    CmPitch:	-0.0015117409	-9.0003994e-12	-0.0015117409	0
    CmRoll:	3.6453005	3.6703154	-0.025014873	0
    CmYaw:	316.05165	314.42293	1.6287183	0
    Cs:	-8.6152564e-20	-8.5928273e-20	-2.2429108e-22	0
    Cs(f):	316.05165	314.42293	1.6287183	0
    Cs(r):	-316.05165	-314.42293	-1.6287183	0

    writing force and moment coefficient files.

Courant Number mean: 0.041750701 max: 0.90043048
deltaT = 3.1913916e-06
Time = 3.61997e-05

PIMPLE: iteration 1
diagonal:  Solving for rho, Initial residual = 0, Final residual = 0, No Iterations 0
DILUPBiCGStab:  Solving for Ux, Initial residual = 0.008293344, Final residual = 3.324134e-07, No Iterations 2
DILUPBiCGStab:  Solving for Uy, Initial residual = 0.025111691, Final residual = 1.1948692e-07, No Iterations 3
DILUPBiCGStab:  Solving for e, Initial residual = 0.011567747, Final residual = 4.616444e-07, No Iterations 3
limitTemperature=limitT, Type=Lower, LimitedCells=0, CellsPercent=0, Tmin=101, UnlimitedTmin=251.51885
limitTemperature=limitT, Type=Upper, LimitedCells=0, CellsPercent=0, Tmax=1000, UnlimitedTmax=314.60819
GAMG:  Solving for p, Initial residual = 0.02221436, Final residual = 5.3678963e-05, No Iterations 2
GAMG:  Solving for p, Initial residual = 0.00059651825, Final residual = 1.0615651e-06, No Iterations 3
diagonal:  Solving for rho, Initial residual = 0, Final residual = 0, No Iterations 0
time step continuity errors : sum local = 6.4387385e-09, global = 1.6911578e-10, cumulative = -7.6712286e-11
GAMG:  Solving for p, Initial residual = 0.00081685001, Final residual = 4.0375232e-06, No Iterations 2
GAMG:  Solving for p, Initial residual = 3.6812421e-05, Final residual = 3.8417637e-07, No Iterations 2
diagonal:  Solving for rho, Initial residual = 0, Final residual = 0, No Iterations 0
time step continuity errors : sum local = 2.3340254e-09, global = -4.6353519e-11, cumulative = -1.2306581e-10
DILUPBiCGStab:  Solving for omega, Initial residual = 0.00019337569, Final residual = 4.5319428e-07, No Iterations 1
DILUPBiCGStab:  Solving for k, Initial residual = 0.0015196501, Final residual = 3.9134746e-07, No Iterations 2
ExecutionTime = 0.58 s  ClockTime = 1 s

forceCoeffs forces write:
    Coefficient	Total	Pressure	Viscous	Internal
    Cd:	6.7815744	6.7427545	0.03881987	0
    Cd(f):	9.2918741	9.2969635	-0.0050893836	0
    Cd(r):	-2.5102997	-2.5542089	0.043909254	0
    Cl:	-0.13805617	-0.13862933	0.00057316257	0
    Cl(f):	-0.07025506	-0.069314667	-0.00094039319	0
    Cl(r):	-0.067801111	-0.069314667	0.0015135558	0
    CmPitch:	-0.0012269745	-1.1029723e-11	-0.0012269745	0
    CmRoll:	5.9010869	5.9255862	-0.024499319	0
    CmYaw:	289.8723	288.21298	1.6593204	0
    Cs:	-8.5959926e-20	-8.5702329e-20	-2.5759699e-22	0
    Cs(f):	289.8723	288.21298	1.6593204	0
    Cs(r):	-289.8723	-288.21298	-1.6593204	0

    writing force and moment coefficient files.

Courant Number mean: 0.041805794 max: 0.92234924
deltaT = 3.1190947e-06
Time = 3.93188e-05

PIMPLE: iteration 1
diagonal:  Solving for rho, Initial residual = 0, Final residual = 0, No Iterations 0
DILUPBiCGStab:  Solving for Ux, Initial residual = 0.0092129821, Final residual = 3.6356168e-07, No Iterations 2
DILUPBiCGStab:  Solving for Uy, Initial residual = 0.023159272, Final residual = 8.984286e-07, No Iterations 2
DILUPBiCGStab:  Solving for e, Initial residual = 0.01115817, Final residual = 4.0877992e-07, No Iterations 3
limitTemperature=limitT, Type=Lower, LimitedCells=0, CellsPercent=0, Tmin=101, UnlimitedTmin=252.37002
limitTemperature=limitT, Type=Upper, LimitedCells=0, CellsPercent=0, Tmax=1000, UnlimitedTmax=312.81765
GAMG:  Solving for p, Initial residual = 0.020028323, Final residual = 3.9921137e-05, No Iterations 2
GAMG:  Solving for p, Initial residual = 0.0004841746, Final residual = 8.0744114e-07, No Iterations 3
diagonal:  Solving for rho, Initial residual = 0, Final residual = 0, No Iterations 0
time step continuity errors : sum local = 5.2276549e-09, global = 1.0081538e-10, cumulative = -2.2250427e-11
GAMG:  Solving for p, Initial residual = 0.00068694874, Final residual = 2.8796953e-06, No Iterations 2
GAMG:  Solving for p, Initial residual = 2.7051539e-05, Final residual = 2.6805068e-07, No Iterations 2
diagonal:  Solving for rho, Initial residual = 0, Final residual = 0, No Iterations 0
time step continuity errors : sum local = 1.7392684e-09, global = -2.9213887e-12, cumulative = -2.5171816e-11
DILUPBiCGStab:  Solving for omega, Initial residual = 0.00018441073, Final residual = 4.4759248e-07, No Iterations 1
DILUPBiCGStab:  Solving for k, Initial residual = 0.0014054564, Final residual = 3.5957543e-07, No Iterations 2
ExecutionTime = 0.6 s  ClockTime = 1 s

forceCoeffs forces write:
    Coefficient	Total	Pressure	Viscous	Internal
    Cd:	6.3232659	6.2830368	0.040229075	0
    Cd(f):	12.121203	12.119926	0.0012763492	0
    Cd(r):	-5.7979367	-5.8368895	0.038952726	0
    Cl:	-0.2096095	-0.21005022	0.0004407202	0
    Cl(f):	-0.10591998	-0.10502511	-0.00089487011	0
    Cl(r):	-0.10368952	-0.10502511	0.0013355903	0
    CmPitch:	-0.0011152302	-1.3347347e-11	-0.0011152302	0
    CmRoll:	8.9595697	8.9784079	-0.018838189	0
    CmYaw:	270.28231	268.56276	1.7195557	0
    Cs:	-8.5571023e-20	-8.5352906e-20	-2.1811715e-22	0
    Cs(f):	270.28231	268.56276	1.7195557	0
    Cs(r):	-270.28231	-268.56276	-1.7195557	0

    writing force and moment coefficient files.

Courant Number mean: 0.040906685 max: 0.92480514
deltaT = 3.0401303e-06
Time = 4.2359e-05

PIMPLE: iteration 1
diagonal:  Solving for rho, Initial residual = 0, Final residual = 0, No Iterations 0
DILUPBiCGStab:  Solving for Ux, Initial residual = 0.010287673, Final residual = 3.9423846e-07, No Iterations 2
DILUPBiCGStab:  Solving for Uy, Initial residual = 0.021821449, Final residual = 8.1214901e-07, No Iterations 2
DILUPBiCGStab:  Solving for e, Initial residual = 0.010818553, Final residual = 3.6385984e-07, No Iterations 3
limitTemperature=limitT, Type=Lower, LimitedCells=0, CellsPercent=0, Tmin=101, UnlimitedTmin=252.98825
limitTemperature=limitT, Type=Upper, LimitedCells=0, CellsPercent=0, Tmax=1000, UnlimitedTmax=311.33325
GAMG:  Solving for p, Initial residual = 0.018243316, Final residual = 3.0800404e-05, No Iterations 2
GAMG:  Solving for p, Initial residual = 0.00039681516, Final residual = 6.0893537e-07, No Iterations 3
diagonal:  Solving for rho, Initial residual = 0, Final residual = 0, No Iterations 0
time step continuity errors : sum local = 4.1608908e-09, global = 4.2900541e-11, cumulative = 1.7728725e-11
GAMG:  Solving for p, Initial residual = 0.00059099463, Final residual = 2.0802147e-06, No Iterations 2
GAMG:  Solving for p, Initial residual = 2.0248065e-05, Final residual = 2.0123151e-07, No Iterations 2
diagonal:  Solving for rho, Initial residual = 0, Final residual = 0, No Iterations 0
time step continuity errors : sum local = 1.3785582e-09, global = 3.3183415e-12, cumulative = 2.1047066e-11
DILUPBiCGStab:  Solving for omega, Initial residual = 0.00017537047, Final residual = 4.3545231e-07, No Iterations 1
DILUPBiCGStab:  Solving for k, Initial residual = 0.0012957829, Final residual = 3.3765843e-07, No Iterations 2
ExecutionTime = 0.63 s  ClockTime = 1 s

forceCoeffs forces write:
    Coefficient	Total	Pressure	Viscous	Internal
    Cd:	5.9566358	5.914725	0.041910864	0
    Cd(f):	15.041011	15.033268	0.007742838	0
    Cd(r):	-9.0843754	-9.1185434	0.034168025	0
    Cl:	-0.28220721	-0.28251632	0.00030910918	0
    Cl(f):	-0.14218106	-0.14125816	-0.00092289816	0
    Cl(r):	-0.14002615	-0.14125816	0.0012320073	0
    CmPitch:	-0.0010774528	-1.4048584e-11	-0.0010774527	0
    CmRoll:	12.062693	12.075906	-0.013212594	0
    CmYaw:	254.61104	252.8196	1.7914422	0
    Cs:	-8.5143873e-20	-8.4971441e-20	-1.7243293e-22	0
    Cs(f):	254.61104	252.8196	1.7914422	0
    Cs(r):	-254.61104	-252.8196	-1.7914422	0

    writing force and moment coefficient files.

Courant Number mean: 0.039914566 max: 0.91829143
deltaT = 2.9833054e-06
Time = 4.53423e-05

PIMPLE: iteration 1
diagonal:  Solving for rho, Initial residual = 0, Final residual = 0, No Iterations 0
DILUPBiCGStab:  Solving for Ux, Initial residual = 0.011617937, Final residual = 4.2342042e-07, No Iterations 2
DILUPBiCGStab:  Solving for Uy, Initial residual = 0.020748844, Final residual = 7.7028533e-07, No Iterations 2
DILUPBiCGStab:  Solving for e, Initial residual = 0.01059395, Final residual = 3.3550666e-07, No Iterations 3
limitTemperature=limitT, Type=Lower, LimitedCells=0, CellsPercent=0, Tmin=101, UnlimitedTmin=253.54342
limitTemperature=limitT, Type=Upper, LimitedCells=0, CellsPercent=0, Tmax=1000, UnlimitedTmax=310.14637
GAMG:  Solving for p, Initial residual = 0.017007378, Final residual = 2.3560531e-05, No Iterations 2
GAMG:  Solving for p, Initial residual = 0.00033785927, Final residual = 4.7183838e-07, No Iterations 3
diagonal:  Solving for rho, Initial residual = 0, Final residual = 0, No Iterations 0
time step continuity errors : sum local = 3.372118e-09, global = -1.1728867e-11, cumulative = 9.3181992e-12
GAMG:  Solving for p, Initial residual = 0.00052298341, Final residual = 1.5040996e-06, No Iterations 2
GAMG:  Solving for p, Initial residual = 1.6218118e-05, Final residual = 1.5471944e-07, No Iterations 2
diagonal:  Solving for rho, Initial residual = 0, Final residual = 0, No Iterations 0
time step continuity errors : sum local = 1.1087747e-09, global = 1.4590373e-11, cumulative = 2.3908572e-11
DILUPBiCGStab:  Solving for omega, Initial residual = 0.00016903337, Final residual = 4.283201e-07, No Iterations 1
DILUPBiCGStab:  Solving for k, Initial residual = 0.0012041726, Final residual = 3.2346964e-07, No Iterations 2
ExecutionTime = 0.66 s  ClockTime = 1 s

forceCoeffs forces write:
    Coefficient	Total	Pressure	Viscous	Internal
    Cd:	5.6354433	5.5916961	0.043747158	0
    Cd(f):	17.532644	17.519159	0.013485423	0
    Cd(r):	-11.897201	-11.927462	0.030261735	0
    Cl:	-0.34425622	-0.34445246	0.00019624125	0
    Cl(f):	-0.17321238	-0.17222623	-0.00098614888	0
    Cl(r):	-0.17104384	-0.17222623	0.0011823901	0
    CmPitch:	-0.0010842695	-1.9173615e-11	-0.0010842695	0
    CmRoll:	14.714922	14.723311	-0.0083881559	0
    CmYaw:	240.88195	239.01202	1.8699329	0
    Cs:	-8.4830745e-20	-8.465993e-20	-1.7081512e-22	0
    Cs(f):	240.88195	239.01202	1.8699329	0
    Cs(r):	-240.88195	-239.01202	-1.8699329	0

    writing force and moment coefficient files.

Courant Number mean: 0.039210789 max: 0.91373418
deltaT = 2.9374084e-06
Time = 4.82797e-05

PIMPLE: iteration 1
diagonal:  Solving for rho, Initial residual = 0, Final residual = 0, No Iterations 0
DILUPBiCGStab:  Solving for Ux, Initial residual = 0.01329546, Final residual = 4.5179425e-07, No Iterations 2
DILUPBiCGStab:  Solving for Uy, Initial residual = 0.019726647, Final residual = 7.8575857e-07, No Iterations 2
DILUPBiCGStab:  Solving for e, Initial residual = 0.010426332, Final residual = 3.1125498e-07, No Iterations 3
limitTemperature=limitT, Type=Lower, LimitedCells=0, CellsPercent=0, Tmin=101, UnlimitedTmin=253.96276
limitTemperature=limitT, Type=Upper, LimitedCells=0, CellsPercent=0, Tmax=1000, UnlimitedTmax=309.21614
GAMG:  Solving for p, Initial residual = 0.016023007, Final residual = 1.8408009e-05, No Iterations 2
GAMG:  Solving for p, Initial residual = 0.00029986038, Final residual = 4.1901765e-07, No Iterations 3
diagonal:  Solving for rho, Initial residual = 0, Final residual = 0, No Iterations 0
time step continuity errors : sum local = 3.1089181e-09, global = -6.0811742e-11, cumulative = -3.6903171e-11
GAMG:  Solving for p, Initial residual = 0.00047358727, Final residual = 1.2161683e-06, No Iterations 2
GAMG:  Solving for p, Initial residual = 1.3684295e-05, Final residual = 1.3030934e-07, No Iterations 2
diagonal:  Solving for rho, Initial residual = 0, Final residual = 0, No Iterations 0
time step continuity errors : sum local = 9.6951299e-10, global = 1.7383952e-11, cumulative = -1.9519219e-11
DILUPBiCGStab:  Solving for omega, Initial residual = 0.00016361697, Final residual = 4.2179503e-07, No Iterations 1
DILUPBiCGStab:  Solving for k, Initial residual = 0.0011212601, Final residual = 3.123758e-07, No Iterations 2
ExecutionTime = 0.7 s  ClockTime = 1 s

forceCoeffs forces write:
    Coefficient	Total	Pressure	Viscous	Internal
    Cd:	5.3348404	5.2891838	0.045656525	0
    Cd(f):	19.472257	19.456295	0.015962126	0
    Cd(r):	-14.137417	-14.167111	0.029694399	0
    Cl:	-0.39314985	-0.39331048	0.00016063355	0
    Cl(f):	-0.19771033	-0.19665524	-0.0010550893	0
    Cl(r):	-0.19543952	-0.19665524	0.0012157229	0
    CmPitch:	-0.0011354061	-2.5559098e-11	-0.0011354061	0
    CmRoll:	16.804837	16.811703	-0.0068661364	0
    CmYaw:	228.03295	226.08141	1.9515471	0
    Cs:	-8.4663649e-20	-8.4478584e-20	-1.8506471e-22	0
    Cs(f):	228.03295	226.08141	1.9515471	0
    Cs(r):	-228.03295	-226.08141	-1.9515471	0

    writing force and moment coefficient files.

Courant Number mean: 0.038652209 max: 0.90731553
deltaT = 2.9104597e-06
Time = 5.11901e-05

PIMPLE: iteration 1
diagonal:  Solving for rho, Initial residual = 0, Final residual = 0, No Iterations 0
DILUPBiCGStab:  Solving for Ux, Initial residual = 0.015416869, Final residual = 5.0369865e-07, No Iterations 2
DILUPBiCGStab:  Solving for Uy, Initial residual = 0.018694575, Final residual = 7.8912491e-07, No Iterations 2
DILUPBiCGStab:  Solving for e, Initial residual = 0.01034103, Final residual = 3.0028973e-07, No Iterations 3
limitTemperature=limitT, Type=Lower, LimitedCells=0, CellsPercent=0, Tmin=101, UnlimitedTmin=254.35131
limitTemperature=limitT, Type=Upper, LimitedCells=0, CellsPercent=0, Tmax=1000, UnlimitedTmax=308.41661
GAMG:  Solving for p, Initial residual = 0.015327857, Final residual = 1.5815575e-05, No Iterations 2
GAMG:  Solving for p, Initial residual = 0.00027422501, Final residual = 2.7346219e-06, No Iterations 2
diagonal:  Solving for rho, Initial residual = 0, Final residual = 0, No Iterations 0
time step continuity errors : sum local = 2.0936035e-08, global = -3.2239832e-10, cumulative = -3.4191754e-10
GAMG:  Solving for p, Initial residual = 0.00043628559, Final residual = 1.0275401e-06, No Iterations 2
GAMG:  Solving for p, Initial residual = 1.1493969e-05, Final residual = 1.0681114e-07, No Iterations 2
diagonal:  Solving for rho, Initial residual = 0, Final residual = 0, No Iterations 0
time step continuity errors : sum local = 8.1995625e-10, global = 5.8525351e-12, cumulative = -3.36065e-10
DILUPBiCGStab:  Solving for omega, Initial residual = 0.00015925629, Final residual = 4.199813e-07, No Iterations 1
DILUPBiCGStab:  Solving for k, Initial residual = 0.0010511596, Final residual = 3.0082064e-07, No Iterations 2
ExecutionTime = 0.73 s  ClockTime = 1 s

forceCoeffs forces write:
    Coefficient	Total	Pressure	Viscous	Internal
    Cd:	5.0428467	4.9952595	0.047587172	0
    Cd(f):	20.66037	20.645107	0.015263035	0
    Cd(r):	-15.617523	-15.649848	0.032324137	0
    Cl:	-0.42436141	-0.42456098	0.00019957259	0
    Cl(f):	-0.21340574	-0.21228049	-0.0011252491	0
    Cl(r):	-0.21095567	-0.21228049	0.0013248217	0
    CmPitch:	-0.0012250354	-2.1744626e-11	-0.0012250354	0
    CmRoll:	18.138947	18.147477	-0.0085305508	0
    CmYaw:	215.55194	213.51787	2.0340709	0
    Cs:	-8.4593432e-20	-8.4414849e-20	-1.785832e-22	0
    Cs(f):	215.55194	213.51787	2.0340709	0
    Cs(r):	-215.55194	-213.51787	-2.0340709	0

    writing force and moment coefficient files.

Courant Number mean: 0.038349203 max: 0.90243528
deltaT = 2.9015592e-06
Time = 5.40917e-05

PIMPLE: iteration 1
diagonal:  Solving for rho, Initial residual = 0, Final residual = 0, No Iterations 0
DILUPBiCGStab:  Solving for Ux, Initial residual = 0.018143164, Final residual = 5.8479293e-07, No Iterations 2
DILUPBiCGStab:  Solving for Uy, Initial residual = 0.017725278, Final residual = 7.5629886e-07, No Iterations 2
DILUPBiCGStab:  Solving for e, Initial residual = 0.010324265, Final residual = 3.0382396e-07, No Iterations 3
limitTemperature=limitT, Type=Lower, LimitedCells=0, CellsPercent=0, Tmin=101, UnlimitedTmin=254.76155
limitTemperature=limitT, Type=Upper, LimitedCells=0, CellsPercent=0, Tmax=1000, UnlimitedTmax=307.6634
GAMG:  Solving for p, Initial residual = 0.014837438, Final residual = 1.43645e-05, No Iterations 2
GAMG:  Solving for p, Initial residual = 0.00025612342, Final residual = 3.3957073e-07, No Iterations 3
diagonal:  Solving for rho, Initial residual = 0, Final residual = 0, No Iterations 0
time step continuity errors : sum local = 2.6697682e-09, global = -6.8487462e-11, cumulative = -4.0455247e-10
GAMG:  Solving for p, Initial residual = 0.00040791312, Final residual = 9.3715249e-07, No Iterations 2
GAMG:  Solving for p, Initial residual = 1.102447e-05, Final residual = 9.7834925e-07, No Iterations 1
diagonal:  Solving for rho, Initial residual = 0, Final residual = 0, No Iterations 0
time step continuity errors : sum local = 7.7119866e-09, global = 1.7371284e-11, cumulative = -3.8718118e-10
DILUPBiCGStab:  Solving for omega, Initial residual = 0.00015571079, Final residual = 4.2815188e-07, No Iterations 1
DILUPBiCGStab:  Solving for k, Initial residual = 0.00098890431, Final residual = 3.0685776e-07, No Iterations 2
ExecutionTime = 0.77 s  ClockTime = 1 s

forceCoeffs forces write:
    Coefficient	Total	Pressure	Viscous	Internal
    Cd:	4.7588763	4.7094069	0.049469442	0
    Cd(f):	21.368687	21.35731	0.011376858	0
    Cd(r):	-16.60981	-16.647903	0.038092584	0
    Cl:	-0.44425425	-0.44456676	0.00031250776	0
    Cl(f):	-0.22346693	-0.22228338	-0.0011835457	0
    Cl(r):	-0.22078733	-0.22228338	0.0014960535	0
    CmPitch:	-0.0013397996	-2.4047014e-11	-0.0013397996	0
    CmRoll:	18.989249	19.002606	-0.013357863	0
    CmYaw:	203.41389	201.29936	2.1145268	0
    Cs:	-8.4682002e-20	-8.4462747e-20	-2.1925527e-22	0
    Cs(f):	203.41389	201.29936	2.1145268	0
    Cs(r):	-203.41389	-201.29936	-2.1145268	0

    writing force and moment coefficient files.

Courant Number mean: 0.0382888 max: 0.90011408
deltaT = 2.9015592e-06
Time = 5.69933e-05

PIMPLE: iteration 1
diagonal:  Solving for rho, Initial residual = 0, Final residual = 0, No Iterations 0
DILUPBiCGStab:  Solving for Ux, Initial residual = 0.021754512, Final residual = 6.9096203e-07, No Iterations 2
DILUPBiCGStab:  Solving for Uy, Initial residual = 0.016946755, Final residual = 7.4301416e-07, No Iterations 2
DILUPBiCGStab:  Solving for e, Initial residual = 0.010348171, Final residual = 3.1726079e-07, No Iterations 3
limitTemperature=limitT, Type=Lower, LimitedCells=0, CellsPercent=0, Tmin=101, UnlimitedTmin=255.21346
limitTemperature=limitT, Type=Upper, LimitedCells=0, CellsPercent=0, Tmax=1000, UnlimitedTmax=306.89046
GAMG:  Solving for p, Initial residual = 0.014488999, Final residual = 1.3284512e-05, No Iterations 2
GAMG:  Solving for p, Initial residual = 0.00024764354, Final residual = 2.4462068e-06, No Iterations 2
diagonal:  Solving for rho, Initial residual = 0, Final residual = 0, No Iterations 0
time step continuity errors : sum local = 1.9669315e-08, global = -1.1694847e-10, cumulative = -5.0412965e-10
GAMG:  Solving for p, Initial residual = 0.00038988436, Final residual = 8.8792345e-07, No Iterations 2
GAMG:  Solving for p, Initial residual = 9.3113586e-06, Final residual = 8.4413837e-07, No Iterations 1
diagonal:  Solving for rho, Initial residual = 0, Final residual = 0, No Iterations 0
time step continuity errors : sum local = 6.8046183e-09, global = -1.0847671e-11, cumulative = -5.1497732e-10
DILUPBiCGStab:  Solving for omega, Initial residual = 0.00015261559, Final residual = 4.4368442e-07, No Iterations 1
DILUPBiCGStab:  Solving for k, Initial residual = 0.0009323804, Final residual = 3.1682822e-07, No Iterations 2
ExecutionTime = 0.81 s  ClockTime = 1 s

forceCoeffs forces write:
    Coefficient	Total	Pressure	Viscous	Internal
    Cd:	4.4890965	4.4378042	0.0512923	0
    Cd(f):	22.169143	22.162999	0.0061446411	0
    Cd(r):	-17.680047	-17.725195	0.045147659	0
    Cl:	-0.46613673	-0.46659297	0.0004562386	0
    Cl(f):	-0.23453929	-0.23329648	-0.0012428072	0
    Cl(r):	-0.23159744	-0.23329648	0.0016990458	0
    CmPitch:	-0.0014709266	-2.4643235e-11	-0.0014709265	0
    CmRoll:	19.924595	19.944097	-0.019501509	0
    CmYaw:	191.88239	189.68995	2.1924432	0
    Cs:	-8.4825935e-20	-8.4603184e-20	-2.2275037e-22	0
    Cs(f):	191.88239	189.68995	2.1924432	0
    Cs(r):	-191.88239	-189.68995	-2.1924432	0

    writing force and moment coefficient files.

Courant Number mean: 0.038349995 max: 0.8982261
deltaT = 2.9105146e-06
Time = 5.99038e-05

PIMPLE: iteration 1
diagonal:  Solving for rho, Initial residual = 0, Final residual = 0, No Iterations 0
DILUPBiCGStab:  Solving for Ux, Initial residual = 0.026402377, Final residual = 8.6180712e-07, No Iterations 2
DILUPBiCGStab:  Solving for Uy, Initial residual = 0.01611328, Final residual = 7.223676e-07, No Iterations 2
DILUPBiCGStab:  Solving for e, Initial residual = 0.010417078, Final residual = 3.4250731e-07, No Iterations 3
limitTemperature=limitT, Type=Lower, LimitedCells=0, CellsPercent=0, Tmin=101, UnlimitedTmin=255.70909
limitTemperature=limitT, Type=Upper, LimitedCells=0, CellsPercent=0, Tmax=1000, UnlimitedTmax=306.06431
GAMG:  Solving for p, Initial residual = 0.014252441, Final residual = 1.2491698e-05, No Iterations 2
GAMG:  Solving for p, Initial residual = 0.00022914016, Final residual = 3.0339041e-07, No Iterations 3
diagonal:  Solving for rho, Initial residual = 0, Final residual = 0, No Iterations 0
time step continuity errors : sum local = 2.4865574e-09, global = -3.9986626e-11, cumulative = -5.5496395e-10
GAMG:  Solving for p, Initial residual = 0.00037288541, Final residual = 8.3286589e-07, No Iterations 2
GAMG:  Solving for p, Initial residual = 9.585706e-06, Final residual = 8.6068038e-07, No Iterations 1
diagonal:  Solving for rho, Initial residual = 0, Final residual = 0, No Iterations 0
time step continuity errors : sum local = 7.0705722e-09, global = 5.6500349e-11, cumulative = -4.984636e-10
DILUPBiCGStab:  Solving for omega, Initial residual = 0.00014985217, Final residual = 4.5652949e-07, No Iterations 1
DILUPBiCGStab:  Solving for k, Initial residual = 0.00088151729, Final residual = 3.3255155e-07, No Iterations 2
ExecutionTime = 0.84 s  ClockTime = 1 s

forceCoeffs forces write:
    Coefficient	Total	Pressure	Viscous	Internal
    Cd:	4.2357338	4.1827078	0.053025937	0
    Cd(f):	23.478579	23.477697	0.00088143575	0
    Cd(r):	-19.242845	-19.294989	0.052144501	0
    Cl:	-0.49973473	-0.50033438	0.00059965076	0
    Cl(f):	-0.25147697	-0.25016719	-0.0013097769	0
    Cl(r):	-0.24825776	-0.25016719	0.0019094276	0
    CmPitch:	-0.0016096023	-2.2183436e-11	-0.0016096022	0
    CmRoll:	21.360712	21.386343	-0.025631532	0
    CmYaw:	181.05263	178.78608	2.266546	0
    Cs:	-8.495073e-20	-8.4742968e-20	-2.0776158e-22	0
    Cs(f):	181.05263	178.78608	2.266546	0
    Cs(r):	-181.05263	-178.78608	-2.266546	0

    writing force and moment coefficient files.

Courant Number mean: 0.038530962 max: 0.89933796
deltaT = 2.9105146e-06
Time = 6.28143e-05

PIMPLE: iteration 1
diagonal:  Solving for rho, Initial residual = 0, Final residual = 0, No Iterations 0
DILUPBiCGStab:  Solving for Ux, Initial residual = 0.032622236, Final residual = 1.4689354e-07, No Iterations 3
DILUPBiCGStab:  Solving for Uy, Initial residual = 0.015306564, Final residual = 6.8346914e-07, No Iterations 2
DILUPBiCGStab:  Solving for e, Initial residual = 0.010457683, Final residual = 3.6184174e-07, No Iterations 3
limitTemperature=limitT, Type=Lower, LimitedCells=0, CellsPercent=0, Tmin=101, UnlimitedTmin=256.27372
limitTemperature=limitT, Type=Upper, LimitedCells=0, CellsPercent=0, Tmax=1000, UnlimitedTmax=305.17085
GAMG:  Solving for p, Initial residual = 0.013975579, Final residual = 1.1964315e-05, No Iterations 2
GAMG:  Solving for p, Initial residual = 0.00022692305, Final residual = 2.1987647e-06, No Iterations 2
diagonal:  Solving for rho, Initial residual = 0, Final residual = 0, No Iterations 0
time step continuity errors : sum local = 1.8310775e-08, global = -3.118119e-11, cumulative = -5.2964479e-10
GAMG:  Solving for p, Initial residual = 0.0003518892, Final residual = 8.0372958e-07, No Iterations 2
GAMG:  Solving for p, Initial residual = 8.1698445e-06, Final residual = 7.361285e-07, No Iterations 1
diagonal:  Solving for rho, Initial residual = 0, Final residual = 0, No Iterations 0
time step continuity errors : sum local = 6.1440302e-09, global = -1.1800561e-11, cumulative = -5.4144535e-10
DILUPBiCGStab:  Solving for omega, Initial residual = 0.00014670049, Final residual = 4.5473411e-07, No Iterations 1
DILUPBiCGStab:  Solving for k, Initial residual = 0.00083085346, Final residual = 3.3867311e-07, No Iterations 2
ExecutionTime = 0.87 s  ClockTime = 1 s

forceCoeffs forces write:
    Coefficient	Total	Pressure	Viscous	Internal
    Cd:	4.0014871	3.9468331	0.054654025	0
    Cd(f):	25.06965	25.071704	-0.0020538877	0
    Cd(r):	-21.068163	-21.124871	0.056707913	0
    Cl:	-0.53969802	-0.54038538	0.00068736737	0
    Cl(f):	-0.27159744	-0.27019269	-0.0014047533	0
    Cl(r):	-0.26810057	-0.27019269	0.0020921207	0
    CmPitch:	-0.001748437	-1.5055573e-11	-0.001748437	0
    CmRoll:	23.068906	23.098287	-0.0293809	0
    CmYaw:	171.03997	168.70383	2.3361371	0
    Cs:	-8.5047145e-20	-8.4830345e-20	-2.1680002e-22	0
    Cs(f):	171.03997	168.70383	2.3361371	0
    Cs(r):	-171.03997	-168.70383	-2.3361371	0

    writing force and moment coefficient files.

Courant Number mean: 0.038592048 max: 0.89582064
deltaT = 2.9195817e-06
Time = 6.57339e-05

PIMPLE: iteration 1
diagonal:  Solving for rho, Initial residual = 0, Final residual = 0, No Iterations 0
DILUPBiCGStab:  Solving for Ux, Initial residual = 0.033486532, Final residual = 1.6343118e-07, No Iterations 3
DILUPBiCGStab:  Solving for Uy, Initial residual = 0.014676335, Final residual = 6.7691595e-07, No Iterations 2
DILUPBiCGStab:  Solving for e, Initial residual = 0.010578212, Final residual = 3.8839976e-07, No Iterations 3
limitTemperature=limitT, Type=Lower, LimitedCells=0, CellsPercent=0, Tmin=101, UnlimitedTmin=256.9136
limitTemperature=limitT, Type=Upper, LimitedCells=0, CellsPercent=0, Tmax=1000, UnlimitedTmax=304.28992
GAMG:  Solving for p, Initial residual = 0.013831002, Final residual = 1.1580925e-05, No Iterations 2
GAMG:  Solving for p, Initial residual = 0.00021035395, Final residual = 2.6731076e-07, No Iterations 3
diagonal:  Solving for rho, Initial residual = 0, Final residual = 0, No Iterations 0
time step continuity errors : sum local = 2.2554508e-09, global = -5.7286877e-12, cumulative = -5.4717404e-10
GAMG:  Solving for p, Initial residual = 0.00033762606, Final residual = 7.9447011e-07, No Iterations 2
GAMG:  Solving for p, Initial residual = 8.1707144e-06, Final residual = 7.489825e-07, No Iterations 1
diagonal:  Solving for rho, Initial residual = 0, Final residual = 0, No Iterations 0
time step continuity errors : sum local = 6.3327523e-09, global = -1.2016778e-10, cumulative = -6.6734181e-10
DILUPBiCGStab:  Solving for omega, Initial residual = 0.00014360677, Final residual = 4.6018144e-07, No Iterations 1
DILUPBiCGStab:  Solving for k, Initial residual = 0.00078682764, Final residual = 3.4024538e-07, No Iterations 2
ExecutionTime = 0.9 s  ClockTime = 1 s

forceCoeffs forces write:
    Coefficient	Total	Pressure	Viscous	Internal
    Cd:	3.7816609	3.7254909	0.056169963	0
    Cd(f):	26.697475	26.700408	-0.0029329104	0
    Cd(r):	-22.915814	-22.974917	0.059102873	0
    Cl:	-0.58035248	-0.58107814	0.00072566486	0
    Cl(f):	-0.29205613	-0.29053907	-0.0015170572	0
    Cl(r):	-0.28829635	-0.29053907	0.0022427221	0
    CmPitch:	-0.0018798897	-1.566367e-11	-0.0018798897	0
    CmRoll:	24.806645	24.837663	-0.031017892	0
    CmYaw:	161.64369	159.24276	2.4009345	0
    Cs:	-8.5066535e-20	-8.4847526e-20	-2.1900885e-22	0
    Cs(f):	161.64369	159.24276	2.4009345	0
    Cs(r):	-161.64369	-159.24276	-2.4009345	0

    writing force and moment coefficient files.

Courant Number mean: 0.038771976 max: 0.89500904
deltaT = 2.9379438e-06
Time = 6.86718e-05

PIMPLE: iteration 1
diagonal:  Solving for rho, Initial residual = 0, Final residual = 0, No Iterations 0
DILUPBiCGStab:  Solving for Ux, Initial residual = 0.026940115, Final residual = 1.4651549e-07, No Iterations 3
DILUPBiCGStab:  Solving for Uy, Initial residual = 0.014023045, Final residual = 6.5734514e-07, No Iterations 2
DILUPBiCGStab:  Solving for e, Initial residual = 0.010748026, Final residual = 4.1648197e-07, No Iterations 3
limitTemperature=limitT, Type=Lower, LimitedCells=0, CellsPercent=0, Tmin=101, UnlimitedTmin=257.60582
limitTemperature=limitT, Type=Upper, LimitedCells=0, CellsPercent=0, Tmax=1000, UnlimitedTmax=303.42833
GAMG:  Solving for p, Initial residual = 0.013749032, Final residual = 1.1400785e-05, No Iterations 2
GAMG:  Solving for p, Initial residual = 0.00021026448, Final residual = 2.5780321e-07, No Iterations 3
diagonal:  Solving for rho, Initial residual = 0, Final residual = 0, No Iterations 0
time step continuity errors : sum local = 2.1972475e-09, global = 9.0134951e-12, cumulative = -6.5832832e-10
GAMG:  Solving for p, Initial residual = 0.00033090561, Final residual = 6.8595695e-07, No Iterations 2
GAMG:  Solving for p, Initial residual = 8.1290565e-06, Final residual = 7.2389747e-07, No Iterations 1
diagonal:  Solving for rho, Initial residual = 0, Final residual = 0, No Iterations 0
time step continuity errors : sum local = 6.182043e-09, global = 1.1996504e-11, cumulative = -6.4633182e-10
DILUPBiCGStab:  Solving for omega, Initial residual = 0.0001409599, Final residual = 4.7065775e-07, No Iterations 1
DILUPBiCGStab:  Solving for k, Initial residual = 0.00074810276, Final residual = 3.4721111e-07, No Iterations 2
ExecutionTime = 0.93 s  ClockTime = 1 s

forceCoeffs forces write:
    Coefficient	Total	Pressure	Viscous	Internal
    Cd:	3.5728215	3.5152831	0.057538449	0
    Cd(f):	28.006367	28.010428	-0.0040604772	0
    Cd(r):	-24.433546	-24.495145	0.061598926	0
    Cl:	-0.61341697	-0.61418502	0.00076805223	0
    Cl(f):	-0.30870801	-0.30709251	-0.001615503	0
    Cl(r):	-0.30470895	-0.30709251	0.0023835552	0
    CmPitch:	-0.0019995291	-1.4494749e-11	-0.0019995291	0
    CmRoll:	26.219957	26.252786	-0.032829702	0
    CmYaw:	152.71704	150.25761	2.4594293	0
    Cs:	-8.5031575e-20	-8.4803652e-20	-2.2792279e-22	0
    Cs(f):	152.71704	150.25761	2.4594293	0
    Cs(r):	-152.71704	-150.25761	-2.4594293	0

    writing force and moment coefficient files.

Courant Number mean: 0.039073047 max: 0.89591625
deltaT = 2.9472411e-06
Time = 7.16191e-05

PIMPLE: iteration 1
diagonal:  Solving for rho, Initial residual = 0, Final residual = 0, No Iterations 0
DILUPBiCGStab:  Solving for Ux, Initial residual = 0.023085433, Final residual = 1.3680398e-07, No Iterations 3
DILUPBiCGStab:  Solving for Uy, Initial residual = 0.0136976, Final residual = 6.5552819e-07, No Iterations 2
DILUPBiCGStab:  Solving for e, Initial residual = 0.010917776, Final residual = 4.3696444e-07, No Iterations 3
limitTemperature=limitT, Type=Lower, LimitedCells=0, CellsPercent=0, Tmin=101, UnlimitedTmin=258.17835
limitTemperature=limitT, Type=Upper, LimitedCells=0, CellsPercent=0, Tmax=1000, UnlimitedTmax=302.60443
GAMG:  Solving for p, Initial residual = 0.013698064, Final residual = 1.1311356e-05, No Iterations 2
GAMG:  Solving for p, Initial residual = 0.00020395989, Final residual = 2.0345823e-06, No Iterations 2
diagonal:  Solving for rho, Initial residual = 0, Final residual = 0, No Iterations 0
time step continuity errors : sum local = 1.7461952e-08, global = 7.3325968e-11, cumulative = -5.7300585e-10
GAMG:  Solving for p, Initial residual = 0.00032528345, Final residual = 7.0991538e-07, No Iterations 2
GAMG:  Solving for p, Initial residual = 7.1791837e-06, Final residual = 6.5804517e-07, No Iterations 1
diagonal:  Solving for rho, Initial residual = 0, Final residual = 0, No Iterations 0
time step continuity errors : sum local = 5.6586321e-09, global = -8.2995677e-11, cumulative = -6.5600152e-10
DILUPBiCGStab:  Solving for omega, Initial residual = 0.00013842903, Final residual = 4.7609289e-07, No Iterations 1
DILUPBiCGStab:  Solving for k, Initial residual = 0.00070947403, Final residual = 3.4619344e-07, No Iterations 2
ExecutionTime = 0.96 s  ClockTime = 1 s

forceCoeffs forces write:
    Coefficient	Total	Pressure	Viscous	Internal
    Cd:	3.3724343	3.3136833	0.058751081	0
    Cd(f):	28.572039	28.578061	-0.0060216216	0
    Cd(r):	-25.199605	-25.264378	0.064772703	0
    Cl:	-0.62899492	-0.62982304	0.00082811807	0
    Cl(f):	-0.31660133	-0.31491152	-0.0016898125	0
    Cl(r):	-0.31239359	-0.31491152	0.0025179306	0
    CmPitch:	-0.0021038715	-1.2241539e-11	-0.0021038715	0
    CmRoll:	26.885822	26.921219	-0.035397162	0
    CmYaw:	144.15167	141.64041	2.5112621	0
    Cs:	-8.495219e-20	-8.4722062e-20	-2.3012846e-22	0
    Cs(f):	144.15167	141.64041	2.5112621	0
    Cs(r):	-144.15167	-141.64041	-2.5112621	0

    writing force and moment coefficient files.

Courant Number mean: 0.039251208 max: 0.89448815
deltaT = 2.9660733e-06
Time = 7.45851e-05

PIMPLE: iteration 1
diagonal:  Solving for rho, Initial residual = 0, Final residual = 0, No Iterations 0
DILUPBiCGStab:  Solving for Ux, Initial residual = 0.020521058, Final residual = 9.294543e-07, No Iterations 2
DILUPBiCGStab:  Solving for Uy, Initial residual = 0.013307926, Final residual = 6.4353174e-07, No Iterations 2
DILUPBiCGStab:  Solving for e, Initial residual = 0.011171616, Final residual = 4.6273155e-07, No Iterations 3
limitTemperature=limitT, Type=Lower, LimitedCells=0, CellsPercent=0, Tmin=101, UnlimitedTmin=258.77481
limitTemperature=limitT, Type=Upper, LimitedCells=0, CellsPercent=0, Tmax=1000, UnlimitedTmax=301.85847
GAMG:  Solving for p, Initial residual = 0.01370686, Final residual = 1.1153688e-05, No Iterations 2
GAMG:  Solving for p, Initial residual = 0.00018828555, Final residual = 1.8788052e-06, No Iterations 2
diagonal:  Solving for rho, Initial residual = 0, Final residual = 0, No Iterations 0
time step continuity errors : sum local = 1.6195861e-08, global = 2.1385714e-10, cumulative = -4.4214438e-10
GAMG:  Solving for p, Initial residual = 0.00031954139, Final residual = 6.9565267e-07, No Iterations 2
GAMG:  Solving for p, Initial residual = 7.0802055e-06, Final residual = 6.577484e-07, No Iterations 1
diagonal:  Solving for rho, Initial residual = 0, Final residual = 0, No Iterations 0
time step continuity errors : sum local = 5.6803122e-09, global = -2.8966462e-11, cumulative = -4.7111085e-10
DILUPBiCGStab:  Solving for omega, Initial residual = 0.00013648552, Final residual = 4.8744296e-07, No Iterations 1
DILUPBiCGStab:  Solving for k, Initial residual = 0.00067556279, Final residual = 3.4324174e-07, No Iterations 2
ExecutionTime = 0.99 s  ClockTime = 1 s

forceCoeffs forces write:
    Coefficient	Total	Pressure	Viscous	Internal
    Cd:	3.1808645	3.1210437	0.059820826	0
    Cd(f):	28.30146	28.310405	-0.0089454098	0
    Cd(r):	-25.120595	-25.189362	0.068766236	0
    Cl:	-0.6249056	-0.62581463	0.00090903358	0
    Cl(f):	-0.31464163	-0.31290732	-0.0017343175	0
    Cl(r):	-0.31026396	-0.31290732	0.0026433511	0
    CmPitch:	-0.0021888343	-6.9662329e-12	-0.0021888343	0
    CmRoll:	26.711028	26.749884	-0.038855823	0
    CmYaw:	135.96319	133.40621	2.5569874	0
    Cs:	-8.4858512e-20	-8.4625204e-20	-2.3330773e-22	0
    Cs(f):	135.96319	133.40621	2.5569874	0
    Cs(r):	-135.96319	-133.40621	-2.5569874	0

    writing force and moment coefficient files.

Courant Number mean: 0.039553946 max: 0.90013539
deltaT = 2.9660733e-06
Time = 7.75512e-05

PIMPLE: iteration 1
diagonal:  Solving for rho, Initial residual = 0, Final residual = 0, No Iterations 0
DILUPBiCGStab:  Solving for Ux, Initial residual = 0.018642201, Final residual = 7.6615012e-07, No Iterations 2
DILUPBiCGStab:  Solving for Uy, Initial residual = 0.01298299, Final residual = 5.7825656e-07, No Iterations 2
DILUPBiCGStab:  Solving for e, Initial residual = 0.011339752, Final residual = 4.7052597e-07, No Iterations 3
limitTemperature=limitT, Type=Lower, LimitedCells=0, CellsPercent=0, Tmin=101, UnlimitedTmin=259.37213
limitTemperature=limitT, Type=Upper, LimitedCells=0, CellsPercent=0, Tmax=1000, UnlimitedTmax=301.18978
GAMG:  Solving for p, Initial residual = 0.013633683, Final residual = 1.0562711e-05, No Iterations 2
GAMG:  Solving for p, Initial residual = 0.00019435694, Final residual = 2.2882137e-07, No Iterations 3
diagonal:  Solving for rho, Initial residual = 0, Final residual = 0, No Iterations 0
time step continuity errors : sum local = 1.9763197e-09, global = 1.2302636e-11, cumulative = -4.5880821e-10
GAMG:  Solving for p, Initial residual = 0.00031107303, Final residual = 6.2207207e-07, No Iterations 2
GAMG:  Solving for p, Initial residual = 6.7251164e-06, Final residual = 6.347186e-07, No Iterations 1
diagonal:  Solving for rho, Initial residual = 0, Final residual = 0, No Iterations 0
time step continuity errors : sum local = 5.4914085e-09, global = -8.0207284e-11, cumulative = -5.3901549e-10
DILUPBiCGStab:  Solving for omega, Initial residual = 0.00013378204, Final residual = 4.8841158e-07, No Iterations 1
DILUPBiCGStab:  Solving for k, Initial residual = 0.0006395254, Final residual = 3.2818582e-07, No Iterations 2
ExecutionTime = 1.02 s  ClockTime = 1 s

forceCoeffs forces write:
    Coefficient	Total	Pressure	Viscous	Internal
    Cd:	3.0006384	2.9398896	0.060748776	0
    Cd(f):	27.246615	27.257183	-0.010567495	0
    Cd(r):	-24.245977	-24.317293	0.07131627	0
    Cl:	-0.60233566	-0.6032935	0.00095783703	0
    Cl(f):	-0.3034242	-0.30164675	-0.0017774481	0
    Cl(r):	-0.29891146	-0.30164675	0.0027352851	0
    CmPitch:	-0.0022563666	-6.0219928e-12	-0.0022563666	0
    CmRoll:	25.746296	25.787238	-0.040941883	0
    CmYaw:	128.25959	125.66294	2.5966518	0
    Cs:	-8.477375e-20	-8.4540042e-20	-2.3370808e-22	0
    Cs(f):	128.25959	125.66294	2.5966518	0
    Cs(r):	-128.25959	-125.66294	-2.5966518	0

    writing force and moment coefficient files.

Courant Number mean: 0.039602234 max: 0.90249428
deltaT = 2.9565667e-06
Time = 8.05078e-05

PIMPLE: iteration 1
diagonal:  Solving for rho, Initial residual = 0, Final residual = 0, No Iterations 0
DILUPBiCGStab:  Solving for Ux, Initial residual = 0.017450153, Final residual = 6.005486e-07, No Iterations 2
DILUPBiCGStab:  Solving for Uy, Initial residual = 0.012841877, Final residual = 4.6324966e-07, No Iterations 2
DILUPBiCGStab:  Solving for e, Initial residual = 0.01153909, Final residual = 4.5810065e-07, No Iterations 3
limitTemperature=limitT, Type=Lower, LimitedCells=0, CellsPercent=0, Tmin=101, UnlimitedTmin=259.92104
limitTemperature=limitT, Type=Upper, LimitedCells=0, CellsPercent=0, Tmax=1000, UnlimitedTmax=300.59273
GAMG:  Solving for p, Initial residual = 0.013560424, Final residual = 1.0061361e-05, No Iterations 2
GAMG:  Solving for p, Initial residual = 0.00017907591, Final residual = 1.7707849e-06, No Iterations 2
diagonal:  Solving for rho, Initial residual = 0, Final residual = 0, No Iterations 0
time step continuity errors : sum local = 1.5291094e-08, global = 7.8302389e-11, cumulative = -4.607131e-10
GAMG:  Solving for p, Initial residual = 0.000306719, Final residual = 6.4137674e-07, No Iterations 2
GAMG:  Solving for p, Initial residual = 6.1499075e-06, Final residual = 5.8167962e-07, No Iterations 1
diagonal:  Solving for rho, Initial residual = 0, Final residual = 0, No Iterations 0
time step continuity errors : sum local = 5.0307881e-09, global = -9.8281431e-11, cumulative = -5.5899454e-10
DILUPBiCGStab:  Solving for omega, Initial residual = 0.00013084237, Final residual = 4.7844802e-07, No Iterations 1
DILUPBiCGStab:  Solving for k, Initial residual = 0.0006039407, Final residual = 3.0863463e-07, No Iterations 2
ExecutionTime = 1.06 s  ClockTime = 1 s

forceCoeffs forces write:
    Coefficient	Total	Pressure	Viscous	Internal
    Cd:	2.8340864	2.7725507	0.061535653	0
    Cd(f):	25.667718	25.679028	-0.011310204	0
    Cd(r):	-22.833631	-22.906477	0.072845857	0
    Cl:	-0.56734553	-0.56832994	0.00098441726	0
    Cl(f):	-0.28597638	-0.28416497	-0.0018114054	0
    Cl(r):	-0.28136915	-0.28416497	0.0027958227	0
    CmPitch:	-0.0023036141	-7.8861689e-12	-0.0023036141	0
    CmRoll:	24.250674	24.292752	-0.042078031	0
    CmYaw:	121.14047	118.51019	2.6302861	0
    Cs:	-8.4725211e-20	-8.4483651e-20	-2.4155991e-22	0
    Cs(f):	121.14047	118.51019	2.6302861	0
    Cs(r):	-121.14047	-118.51019	-2.6302861	0

    writing force and moment coefficient files.

Courant Number mean: 0.039520114 max: 0.90108257
deltaT = 2.9565667e-06
Time = 8.34643e-05

PIMPLE: iteration 1
diagonal:  Solving for rho, Initial residual = 0, Final residual = 0, No Iterations 0
DILUPBiCGStab:  Solving for Ux, Initial residual = 0.016367649, Final residual = 4.509005e-07, No Iterations 2
DILUPBiCGStab:  Solving for Uy, Initial residual = 0.012527435, Final residual = 4.2784236e-07, No Iterations 2
DILUPBiCGStab:  Solving for e, Initial residual = 0.011737358, Final residual = 4.3429514e-07, No Iterations 3
limitTemperature=limitT, Type=Lower, LimitedCells=0, CellsPercent=0, Tmin=101, UnlimitedTmin=260.44132
limitTemperature=limitT, Type=Upper, LimitedCells=0, CellsPercent=0, Tmax=1000, UnlimitedTmax=300.05353
GAMG:  Solving for p, Initial residual = 0.013507634, Final residual = 9.6873884e-06, No Iterations 2
GAMG:  Solving for p, Initial residual = 0.00017343865, Final residual = 1.6704988e-06, No Iterations 2
diagonal:  Solving for rho, Initial residual = 0, Final residual = 0, No Iterations 0
time step continuity errors : sum local = 1.4398607e-08, global = 2.9177757e-10, cumulative = -2.6721696e-10
GAMG:  Solving for p, Initial residual = 0.00030374602, Final residual = 6.1226732e-07, No Iterations 2
GAMG:  Solving for p, Initial residual = 6.1638945e-06, Final residual = 5.7063997e-07, No Iterations 1
diagonal:  Solving for rho, Initial residual = 0, Final residual = 0, No Iterations 0
time step continuity errors : sum local = 4.9254357e-09, global = -2.680689e-11, cumulative = -2.9402385e-10
DILUPBiCGStab:  Solving for omega, Initial residual = 0.00012828547, Final residual = 4.7426821e-07, No Iterations 1
DILUPBiCGStab:  Solving for k, Initial residual = 0.00057274484, Final residual = 2.9158459e-07, No Iterations 2
ExecutionTime = 1.09 s  ClockTime = 1 s

forceCoeffs forces write:
    Coefficient	Total	Pressure	Viscous	Internal
    Cd:	2.6820494	2.6198481	0.06220125	0
    Cd(f):	23.77769	23.790072	-0.012381383	0
    Cd(r):	-21.095641	-21.170224	0.074582633	0
    Cl:	-0.52490672	-0.52592398	0.0010172634	0
    Cl(f):	-0.26478205	-0.26296199	-0.001820056	0
    Cl(r):	-0.26012467	-0.26296199	0.0028373193	0
    CmPitch:	-0.0023286877	-8.3060055e-12	-0.0023286877	0
    CmRoll:	22.436666	22.480148	-0.043482008	0
    CmYaw:	114.64179	111.98305	2.6587365	0
    Cs:	-8.4717866e-20	-8.4459121e-20	-2.5874522e-22	0
    Cs(f):	114.64179	111.98305	2.6587365	0
    Cs(r):	-114.64179	-111.98305	-2.6587365	0

    writing force and moment coefficient files.

Courant Number mean: 0.039561409 max: 0.90143278
deltaT = 2.9565667e-06
Time = 8.64209e-05

PIMPLE: iteration 1
diagonal:  Solving for rho, Initial residual = 0, Final residual = 0, No Iterations 0
DILUPBiCGStab:  Solving for Ux, Initial residual = 0.015789086, Final residual = 3.6356365e-07, No Iterations 2
DILUPBiCGStab:  Solving for Uy, Initial residual = 0.012397433, Final residual = 4.3674108e-07, No Iterations 2
DILUPBiCGStab:  Solving for e, Initial residual = 0.011949304, Final residual = 3.9918999e-07, No Iterations 3
limitTemperature=limitT, Type=Lower, LimitedCells=0, CellsPercent=0, Tmin=101, UnlimitedTmin=260.97006
limitTemperature=limitT, Type=Upper, LimitedCells=0, CellsPercent=0, Tmax=1000, UnlimitedTmax=299.55635
GAMG:  Solving for p, Initial residual = 0.013500413, Final residual = 9.4816299e-06, No Iterations 2
GAMG:  Solving for p, Initial residual = 0.0001631752, Final residual = 1.5622389e-06, No Iterations 2
diagonal:  Solving for rho, Initial residual = 0, Final residual = 0, No Iterations 0
time step continuity errors : sum local = 1.3418846e-08, global = 2.052536e-11, cumulative = -2.7349849e-10
GAMG:  Solving for p, Initial residual = 0.00029475603, Final residual = 5.1869784e-07, No Iterations 2
GAMG:  Solving for p, Initial residual = 5.4210963e-06, Final residual = 5.1375565e-07, No Iterations 1
diagonal:  Solving for rho, Initial residual = 0, Final residual = 0, No Iterations 0
time step continuity errors : sum local = 4.4184289e-09, global = -5.5760272e-11, cumulative = -3.2925877e-10
DILUPBiCGStab:  Solving for omega, Initial residual = 0.00012564063, Final residual = 4.6514294e-07, No Iterations 1
DILUPBiCGStab:  Solving for k, Initial residual = 0.00054362796, Final residual = 2.7382506e-07, No Iterations 2
ExecutionTime = 1.13 s  ClockTime = 1 s

forceCoeffs forces write:
    Coefficient	Total	Pressure	Viscous	Internal
    Cd:	2.5456382	2.482902	0.062736258	0
    Cd(f):	21.64326	21.655029	-0.011768528	0
    Cd(r):	-19.097622	-19.172127	0.074504787	0
    Cl:	-0.47656731	-0.4775765	0.0010091839	0
    Cl(f):	-0.24062455	-0.23878825	-0.0018363043	0
    Cl(r):	-0.23594276	-0.23878825	0.0028454881	0
    CmPitch:	-0.0023408962	-1.0237433e-11	-0.0023408962	0
    CmRoll:	20.370441	20.413578	-0.043136658	0
    CmYaw:	108.81102	106.12941	2.6816049	0
    Cs:	-8.4732943e-20	-8.4460024e-20	-2.7291876e-22	0
    Cs(f):	108.81102	106.12941	2.6816049	0
    Cs(r):	-108.81102	-106.12941	-2.6816049	0

    writing force and moment coefficient files.

Courant Number mean: 0.039599167 max: 0.90060718
deltaT = 2.9565667e-06
Time = 8.93775e-05

PIMPLE: iteration 1
diagonal:  Solving for rho, Initial residual = 0, Final residual = 0, No Iterations 0
DILUPBiCGStab:  Solving for Ux, Initial residual = 0.015468086, Final residual = 3.3176521e-07, No Iterations 2
DILUPBiCGStab:  Solving for Uy, Initial residual = 0.012486689, Final residual = 4.2738981e-07, No Iterations 2
DILUPBiCGStab:  Solving for e, Initial residual = 0.01223226, Final residual = 3.5597397e-07, No Iterations 3
limitTemperature=limitT, Type=Lower, LimitedCells=0, CellsPercent=0, Tmin=101, UnlimitedTmin=261.49779
limitTemperature=limitT, Type=Upper, LimitedCells=0, CellsPercent=0, Tmax=1000, UnlimitedTmax=299.11082
GAMG:  Solving for p, Initial residual = 0.013576458, Final residual = 9.1617411e-06, No Iterations 2
GAMG:  Solving for p, Initial residual = 0.00016781853, Final residual = 2.0177013e-07, No Iterations 3
diagonal:  Solving for rho, Initial residual = 0, Final residual = 0, No Iterations 0
time step continuity errors : sum local = 1.7248871e-09, global = 1.0691504e-12, cumulative = -3.2818962e-10
GAMG:  Solving for p, Initial residual = 0.00029128153, Final residual = 5.6368482e-07, No Iterations 2
GAMG:  Solving for p, Initial residual = 5.391805e-06, Final residual = 5.1582184e-07, No Iterations 1
diagonal:  Solving for rho, Initial residual = 0, Final residual = 0, No Iterations 0
time step continuity errors : sum local = 4.4145016e-09, global = -8.9189338e-11, cumulative = -4.1737895e-10
DILUPBiCGStab:  Solving for omega, Initial residual = 0.00012290106, Final residual = 4.5551316e-07, No Iterations 1
DILUPBiCGStab:  Solving for k, Initial residual = 0.00051649274, Final residual = 2.5938786e-07, No Iterations 2
ExecutionTime = 1.16 s  ClockTime = 1 s

forceCoeffs forces write:
    Coefficient	Total	Pressure	Viscous	Internal
    Cd:	2.4242022	2.3610368	0.063165416	0
    Cd(f):	19.673752	19.684445	-0.010693077	0
    Cd(r):	-17.24955	-17.323408	0.073858493	0
    Cl:	-0.43191109	-0.43290013	0.00098904373	0
    Cl(f):	-0.21828526	-0.21645006	-0.0018351908	0
    Cl(r):	-0.21362583	-0.21645006	0.0028242345	0
    CmPitch:	-0.0023297127	-1.0920543e-11	-0.0023297127	0
    CmRoll:	18.461651	18.503927	-0.042275785	0
    CmYaw:	103.62034	100.92039	2.6999489	0
    Cs:	-8.4764907e-20	-8.4476167e-20	-2.8873988e-22	0
    Cs(f):	103.62034	100.92039	2.6999489	0
    Cs(r):	-103.62034	-100.92039	-2.6999489	0

    writing force and moment coefficient files.

Courant Number mean: 0.03963378 max: 0.89852633
deltaT = 2.9661972e-06
Time = 9.23437e-05

PIMPLE: iteration 1
diagonal:  Solving for rho, Initial residual = 0, Final residual = 0, No Iterations 0
DILUPBiCGStab:  Solving for Ux, Initial residual = 0.015019474, Final residual = 3.5800724e-07, No Iterations 2
DILUPBiCGStab:  Solving for Uy, Initial residual = 0.012228774, Final residual = 3.9892815e-07, No Iterations 2
DILUPBiCGStab:  Solving for e, Initial residual = 0.012530504, Final residual = 3.2051292e-07, No Iterations 3
limitTemperature=limitT, Type=Lower, LimitedCells=0, CellsPercent=0, Tmin=101, UnlimitedTmin=261.98512
limitTemperature=limitT, Type=Upper, LimitedCells=0, CellsPercent=0, Tmax=1000, UnlimitedTmax=299.29292
GAMG:  Solving for p, Initial residual = 0.013634112, Final residual = 9.2047841e-06, No Iterations 2
GAMG:  Solving for p, Initial residual = 0.00016043837, Final residual = 1.477939e-06, No Iterations 2
diagonal:  Solving for rho, Initial residual = 0, Final residual = 0, No Iterations 0
time step continuity errors : sum local = 1.2557725e-08, global = 1.59318e-10, cumulative = -2.5806095e-10
GAMG:  Solving for p, Initial residual = 0.00029283534, Final residual = 5.4174811e-07, No Iterations 2
GAMG:  Solving for p, Initial residual = 5.4244416e-06, Final residual = 5.1843121e-07, No Iterations 1
diagonal:  Solving for rho, Initial residual = 0, Final residual = 0, No Iterations 0
time step continuity errors : sum local = 4.4092808e-09, global = -7.1415948e-11, cumulative = -3.294769e-10
DILUPBiCGStab:  Solving for omega, Initial residual = 0.00012044516, Final residual = 4.4544933e-07, No Iterations 1
DILUPBiCGStab:  Solving for k, Initial residual = 0.00049272279, Final residual = 2.5186803e-07, No Iterations 2
ExecutionTime = 1.19 s  ClockTime = 1 s

forceCoeffs forces write:
    Coefficient	Total	Pressure	Viscous	Internal
    Cd:	2.316701	2.2532141	0.063486913	0
    Cd(f):	17.796263	17.80412	-0.0078571901	0
    Cd(r):	-15.479561	-15.550906	0.071344104	0
    Cl:	-0.38924464	-0.3901711	0.00092645877	0
    Cl(f):	-0.19692408	-0.19508555	-0.0018385288	0
    Cl(r):	-0.19232056	-0.19508555	0.0027649876	0
    CmPitch:	-0.0023017582	-9.2329423e-12	-0.0023017582	0
    CmRoll:	16.637912	16.677513	-0.039600647	0
    CmYaw:	99.025302	96.311611	2.713691	0
    Cs:	-8.4809874e-20	-8.450567e-20	-3.0420338e-22	0
    Cs(f):	99.025302	96.311611	2.713691	0
    Cs(r):	-99.025302	-96.311611	-2.713691	0

    writing force and moment coefficient files.

Courant Number mean: 0.039794318 max: 0.89828671
deltaT = 2.9759224e-06
Time = 9.53196e-05

PIMPLE: iteration 1
diagonal:  Solving for rho, Initial residual = 0, Final residual = 0, No Iterations 0
DILUPBiCGStab:  Solving for Ux, Initial residual = 0.014820807, Final residual = 4.069634e-07, No Iterations 2
[...]
ExecutionTime = 18.73 s  ClockTime = 20 s

forceCoeffs forces write:
    Coefficient	Total	Pressure	Viscous	Internal
    Cd:	1.8213041	1.7815649	0.03973923	0
    Cd(f):	-9.55213	-9.373495	-0.17863502	0
    Cd(r):	11.373434	11.15506	0.21837425	0
    Cl:	0.24477722	0.24013319	0.0046440241	0
    Cl(f):	0.12325635	0.1200666	0.0031897571	0
    Cl(r):	0.12152086	0.1200666	0.001454267	0
    CmPitch:	0.00086774504	-5.164662e-12	0.00086774505	0
    CmRoll:	-10.462782	-10.264277	-0.19850463	0
    CmYaw:	77.850006	76.151388	1.6986177	0
    Cs:	-8.6366059e-20	-8.6100969e-20	-2.6509041e-22	0
    Cs(f):	77.850006	76.151388	1.6986177	0
    Cs(r):	-77.850006	-76.151388	-1.6986177	0

    writing force and moment coefficient files.

Courant Number mean: 0.049938152 max: 0.90066947
deltaT = 3.6924233e-06
Time = 0.00215074

PIMPLE: iteration 1
diagonal:  Solving for rho, Initial residual = 0, Final residual = 0, No Iterations 0
DILUPBiCGStab:  Solving for Ux, Initial residual = 0.00050032113, Final residual = 3.17729e-07, No Iterations 1
DILUPBiCGStab:  Solving for Uy, Initial residual = 0.00074345414, Final residual = 6.0448927e-07, No Iterations 1
DILUPBiCGStab:  Solving for e, Initial residual = 0.0050299229, Final residual = 5.410011e-07, No Iterations 2
limitTemperature=limitT, Type=Lower, LimitedCells=0, CellsPercent=0, Tmin=101, UnlimitedTmin=291.54903
limitTemperature=limitT, Type=Upper, LimitedCells=0, CellsPercent=0, Tmax=1000, UnlimitedTmax=294.27561
GAMG:  Solving for p, Initial residual = 0.0059268005, Final residual = 1.4509924e-05, No Iterations 1
GAMG:  Solving for p, Initial residual = 1.6241856e-05, Final residual = 2.1883315e-07, No Iterations 2
diagonal:  Solving for rho, Initial residual = 0, Final residual = 0, No Iterations 0
time step continuity errors : sum local = 9.7468426e-10, global = 1.3560779e-11, cumulative = 8.2189708e-10
GAMG:  Solving for p, Initial residual = 3.4827069e-05, Final residual = 4.6590004e-07, No Iterations 1
GAMG:  Solving for p, Initial residual = 5.3074867e-07, Final residual = 5.3074867e-07, No Iterations 0
diagonal:  Solving for rho, Initial residual = 0, Final residual = 0, No Iterations 0
time step continuity errors : sum local = 2.3639052e-09, global = -5.7450071e-11, cumulative = 7.6444701e-10
DILUPBiCGStab:  Solving for omega, Initial residual = 1.5600652e-05, Final residual = 1.464135e-07, No Iterations 1
DILUPBiCGStab:  Solving for k, Initial residual = 6.3880415e-05, Final residual = 8.7640019e-08, No Iterations 1
ExecutionTime = 18.76 s  ClockTime = 20 s

forceCoeffs forces write:
    Coefficient	Total	Pressure	Viscous	Internal
    Cd:	1.8212788	1.7815533	0.039725485	0
    Cd(f):	-9.5140247	-9.3352998	-0.17872486	0
    Cd(r):	11.335303	11.116853	0.21845034	0
    Cl:	0.24388545	0.23923948	0.0046459651	0
    Cl(f):	0.12280936	0.11961974	0.0031896212	0
    Cl(r):	0.12107608	0.11961974	0.0014563439	0
    CmPitch:	0.00086663863	-5.3497163e-12	0.00086663863	0
    CmRoll:	-10.424664	-10.226076	-0.1985876	0
    CmYaw:	77.848922	76.150892	1.6980301	0
    Cs:	-8.6364776e-20	-8.610376e-20	-2.610161e-22	0
    Cs(f):	77.848922	76.150892	1.6980301	0
    Cs(r):	-77.848922	-76.150892	-1.6980301	0

    writing force and moment coefficient files.

Courant Number mean: 0.04993353 max: 0.90057185
deltaT = 3.6924233e-06
Time = 0.00215444

PIMPLE: iteration 1
diagonal:  Solving for rho, Initial residual = 0, Final residual = 0, No Iterations 0
DILUPBiCGStab:  Solving for Ux, Initial residual = 0.00050069415, Final residual = 3.1031224e-07, No Iterations 1
DILUPBiCGStab:  Solving for Uy, Initial residual = 0.0007433136, Final residual = 6.1927128e-07, No Iterations 1
DILUPBiCGStab:  Solving for e, Initial residual = 0.0050278439, Final residual = 5.1602183e-07, No Iterations 2
limitTemperature=limitT, Type=Lower, LimitedCells=0, CellsPercent=0, Tmin=101, UnlimitedTmin=291.55426
limitTemperature=limitT, Type=Upper, LimitedCells=0, CellsPercent=0, Tmax=1000, UnlimitedTmax=294.27239
GAMG:  Solving for p, Initial residual = 0.0059536383, Final residual = 1.4789034e-05, No Iterations 1
GAMG:  Solving for p, Initial residual = 1.6806508e-05, Final residual = 2.342429e-07, No Iterations 2
diagonal:  Solving for rho, Initial residual = 0, Final residual = 0, No Iterations 0
time step continuity errors : sum local = 1.041747e-09, global = 7.6276709e-12, cumulative = 7.7207468e-10
GAMG:  Solving for p, Initial residual = 3.527299e-05, Final residual = 4.8168587e-07, No Iterations 1
GAMG:  Solving for p, Initial residual = 5.9948788e-07, Final residual = 5.9948788e-07, No Iterations 0
diagonal:  Solving for rho, Initial residual = 0, Final residual = 0, No Iterations 0
time step continuity errors : sum local = 2.6660532e-09, global = -2.0487175e-11, cumulative = 7.5158751e-10
DILUPBiCGStab:  Solving for omega, Initial residual = 1.5595656e-05, Final residual = 1.4586504e-07, No Iterations 1
DILUPBiCGStab:  Solving for k, Initial residual = 6.3906331e-05, Final residual = 8.7507822e-08, No Iterations 1
ExecutionTime = 18.78 s  ClockTime = 20 s

forceCoeffs forces write:
    Coefficient	Total	Pressure	Viscous	Internal
    Cd:	1.8212212	1.7815119	0.039709281	0
    Cd(f):	-9.4828112	-9.3039783	-0.17883288	0
    Cd(r):	11.304032	11.08549	0.21854216	0
    Cl:	0.24315453	0.23850623	0.0046483026	0
    Cl(f):	0.1224421	0.11925311	0.0031889832	0
    Cl(r):	0.12071243	0.11925311	0.0014593195	0
    CmPitch:	0.00086483184	-5.0931467e-12	0.00086483184	0
    CmRoll:	-10.393422	-10.194734	-0.19868752	0
    CmYaw:	77.846463	76.149126	1.6973375	0
    Cs:	-8.6370658e-20	-8.6104226e-20	-2.6643222e-22	0
    Cs(f):	77.846463	76.149126	1.6973375	0
    Cs(r):	-77.846463	-76.149126	-1.6973375	0

    writing force and moment coefficient files.

Courant Number mean: 0.049928947 max: 0.90046888
deltaT = 3.6924233e-06
Time = 0.00215813

PIMPLE: iteration 1
diagonal:  Solving for rho, Initial residual = 0, Final residual = 0, No Iterations 0
DILUPBiCGStab:  Solving for Ux, Initial residual = 0.00050099935, Final residual = 3.0354243e-07, No Iterations 1
DILUPBiCGStab:  Solving for Uy, Initial residual = 0.00074527734, Final residual = 6.2867219e-07, No Iterations 1
DILUPBiCGStab:  Solving for e, Initial residual = 0.0050289854, Final residual = 4.9752861e-07, No Iterations 2
limitTemperature=limitT, Type=Lower, LimitedCells=0, CellsPercent=0, Tmin=101, UnlimitedTmin=291.5575
limitTemperature=limitT, Type=Upper, LimitedCells=0, CellsPercent=0, Tmax=1000, UnlimitedTmax=294.26896
GAMG:  Solving for p, Initial residual = 0.0060000042, Final residual = 1.5249034e-05, No Iterations 1
GAMG:  Solving for p, Initial residual = 1.7325789e-05, Final residual = 2.3054209e-07, No Iterations 2
diagonal:  Solving for rho, Initial residual = 0, Final residual = 0, No Iterations 0
time step continuity errors : sum local = 1.0239787e-09, global = 4.1808434e-13, cumulative = 7.5200559e-10
GAMG:  Solving for p, Initial residual = 3.9958424e-05, Final residual = 7.232153e-07, No Iterations 1
GAMG:  Solving for p, Initial residual = 7.9410578e-07, Final residual = 7.9410578e-07, No Iterations 0
diagonal:  Solving for rho, Initial residual = 0, Final residual = 0, No Iterations 0
time step continuity errors : sum local = 3.5270408e-09, global = -3.101744e-12, cumulative = 7.4890385e-10
DILUPBiCGStab:  Solving for omega, Initial residual = 1.5754906e-05, Final residual = 1.4676174e-07, No Iterations 1
DILUPBiCGStab:  Solving for k, Initial residual = 6.3930667e-05, Final residual = 8.7366532e-08, No Iterations 1
ExecutionTime = 18.81 s  ClockTime = 20 s

forceCoeffs forces write:
    Coefficient	Total	Pressure	Viscous	Internal
    Cd:	1.8213564	1.7816638	0.039692619	0
    Cd(f):	-9.4603886	-9.2816755	-0.17871302	0
    Cd(r):	11.281745	11.063339	0.21840564	0
    Cl:	0.24263154	0.23798623	0.0046453037	0
    Cl(f):	0.12217912	0.11899312	0.0031860028	0
    Cl(r):	0.12045242	0.11899312	0.0014593009	0
    CmPitch:	0.00086335096	-7.0033902e-12	0.00086335097	0
    CmRoll:	-10.371067	-10.172507	-0.19855933	0
    CmYaw:	77.852243	76.155618	1.6966253	0
    Cs:	-8.6368633e-20	-8.6107013e-20	-2.6162066e-22	0
    Cs(f):	77.852243	76.155618	1.6966253	0
    Cs(r):	-77.852243	-76.155618	-1.6966253	0

    writing force and moment coefficient files.

Courant Number mean: 0.049924452 max: 0.90035323
deltaT = 3.6924233e-06
Time = 0.00216182

PIMPLE: iteration 1
diagonal:  Solving for rho, Initial residual = 0, Final residual = 0, No Iterations 0
DILUPBiCGStab:  Solving for Ux, Initial residual = 0.00050096778, Final residual = 2.9836391e-07, No Iterations 1
DILUPBiCGStab:  Solving for Uy, Initial residual = 0.00074311886, Final residual = 6.2571564e-07, No Iterations 1
DILUPBiCGStab:  Solving for e, Initial residual = 0.0050340213, Final residual = 4.8483343e-07, No Iterations 2
limitTemperature=limitT, Type=Lower, LimitedCells=0, CellsPercent=0, Tmin=101, UnlimitedTmin=291.5594
limitTemperature=limitT, Type=Upper, LimitedCells=0, CellsPercent=0, Tmax=1000, UnlimitedTmax=294.26889
GAMG:  Solving for p, Initial residual = 0.0060268014, Final residual = 1.6243138e-05, No Iterations 1
GAMG:  Solving for p, Initial residual = 1.8224769e-05, Final residual = 2.6995212e-07, No Iterations 2
diagonal:  Solving for rho, Initial residual = 0, Final residual = 0, No Iterations 0
time step continuity errors : sum local = 1.1977618e-09, global = 3.0035676e-13, cumulative = 7.492042e-10
GAMG:  Solving for p, Initial residual = 3.872199e-05, Final residual = 7.4128999e-07, No Iterations 1
GAMG:  Solving for p, Initial residual = 8.2239812e-07, Final residual = 8.2239812e-07, No Iterations 0
diagonal:  Solving for rho, Initial residual = 0, Final residual = 0, No Iterations 0
time step continuity errors : sum local = 3.648893e-09, global = 6.2215809e-12, cumulative = 7.5542578e-10
DILUPBiCGStab:  Solving for omega, Initial residual = 1.5836106e-05, Final residual = 1.5016775e-07, No Iterations 1
DILUPBiCGStab:  Solving for k, Initial residual = 6.3983342e-05, Final residual = 8.7480076e-08, No Iterations 1
ExecutionTime = 18.84 s  ClockTime = 20 s

forceCoeffs forces write:
    Coefficient	Total	Pressure	Viscous	Internal
    Cd:	1.821608	1.7819333	0.039674648	0
    Cd(f):	-9.4087189	-9.2301089	-0.17861004	0
    Cd(r):	11.230327	11.012042	0.21828469	0
    Cl:	0.24142567	0.23678298	0.0046426843	0
    Cl(f):	0.12157508	0.11839149	0.0031835941	0
    Cl(r):	0.11985058	0.11839149	0.0014590902	0
    CmPitch:	0.00086225193	-6.0323815e-12	0.00086225194	0
    CmRoll:	-10.319523	-10.121076	-0.19844736	0
    CmYaw:	77.862995	76.167138	1.6958571	0
    Cs:	-8.6375485e-20	-8.6108163e-20	-2.6732183e-22	0
    Cs(f):	77.862995	76.167138	1.6958571	0
    Cs(r):	-77.862995	-76.167138	-1.6958571	0

    writing force and moment coefficient files.

Courant Number mean: 0.049920068 max: 0.90023344
deltaT = 3.6924233e-06
Time = 0.00216551

PIMPLE: iteration 1
diagonal:  Solving for rho, Initial residual = 0, Final residual = 0, No Iterations 0
DILUPBiCGStab:  Solving for Ux, Initial residual = 0.00050120427, Final residual = 2.9425239e-07, No Iterations 1
DILUPBiCGStab:  Solving for Uy, Initial residual = 0.00074117707, Final residual = 6.148073e-07, No Iterations 1
DILUPBiCGStab:  Solving for e, Initial residual = 0.0050394044, Final residual = 4.7713619e-07, No Iterations 2
limitTemperature=limitT, Type=Lower, LimitedCells=0, CellsPercent=0, Tmin=101, UnlimitedTmin=291.5629
limitTemperature=limitT, Type=Upper, LimitedCells=0, CellsPercent=0, Tmax=1000, UnlimitedTmax=294.2688
GAMG:  Solving for p, Initial residual = 0.0060661105, Final residual = 1.6001367e-05, No Iterations 1
GAMG:  Solving for p, Initial residual = 1.8260573e-05, Final residual = 2.5928128e-07, No Iterations 2
diagonal:  Solving for rho, Initial residual = 0, Final residual = 0, No Iterations 0
time step continuity errors : sum local = 1.1494809e-09, global = -5.8712495e-12, cumulative = 7.4955453e-10
GAMG:  Solving for p, Initial residual = 4.1505208e-05, Final residual = 7.4642339e-07, No Iterations 1
GAMG:  Solving for p, Initial residual = 8.7047937e-07, Final residual = 8.7047937e-07, No Iterations 0
diagonal:  Solving for rho, Initial residual = 0, Final residual = 0, No Iterations 0
time step continuity errors : sum local = 3.8590387e-09, global = 2.0249084e-11, cumulative = 7.6980362e-10
DILUPBiCGStab:  Solving for omega, Initial residual = 1.5797499e-05, Final residual = 1.5026161e-07, No Iterations 1
DILUPBiCGStab:  Solving for k, Initial residual = 6.400368e-05, Final residual = 8.7356659e-08, No Iterations 1
ExecutionTime = 18.87 s  ClockTime = 20 s

forceCoeffs forces write:
    Coefficient	Total	Pressure	Viscous	Internal
    Cd:	1.8214477	1.7817857	0.03966198	0
    Cd(f):	-9.4074751	-9.2291174	-0.17835775	0
    Cd(r):	11.228923	11.010903	0.21801973	0
    Cl:	0.24139469	0.23675806	0.0046366337	0
    Cl(f):	0.1215562	0.11837903	0.0031771669	0
    Cl(r):	0.1198385	0.11837903	0.0014594667	0
    CmPitch:	0.00085885009	-4.2557894e-12	0.00085885009	0
    CmRoll:	-10.318199	-10.12001	-0.19818874	0
    CmYaw:	77.856144	76.160828	1.6953157	0
    Cs:	-8.6376607e-20	-8.6110609e-20	-2.6599781e-22	0
    Cs(f):	77.856144	76.160828	1.6953157	0
    Cs(r):	-77.856144	-76.160828	-1.6953157	0

    writing force and moment coefficient files.

Courant Number mean: 0.049915851 max: 0.90011757
deltaT = 3.6924233e-06
Time = 0.0021692

PIMPLE: iteration 1
diagonal:  Solving for rho, Initial residual = 0, Final residual = 0, No Iterations 0
DILUPBiCGStab:  Solving for Ux, Initial residual = 0.0005011824, Final residual = 2.8610817e-07, No Iterations 1
DILUPBiCGStab:  Solving for Uy, Initial residual = 0.00073992212, Final residual = 6.138938e-07, No Iterations 1
DILUPBiCGStab:  Solving for e, Initial residual = 0.0050504373, Final residual = 4.6494358e-07, No Iterations 2
limitTemperature=limitT, Type=Lower, LimitedCells=0, CellsPercent=0, Tmin=101, UnlimitedTmin=291.56844
limitTemperature=limitT, Type=Upper, LimitedCells=0, CellsPercent=0, Tmax=1000, UnlimitedTmax=294.26973
GAMG:  Solving for p, Initial residual = 0.0060695004, Final residual = 1.5532576e-05, No Iterations 1
GAMG:  Solving for p, Initial residual = 1.7504263e-05, Final residual = 2.4542124e-07, No Iterations 2
diagonal:  Solving for rho, Initial residual = 0, Final residual = 0, No Iterations 0
time step continuity errors : sum local = 1.0873564e-09, global = -4.2760271e-12, cumulative = 7.6552759e-10
GAMG:  Solving for p, Initial residual = 3.7390195e-05, Final residual = 6.9184054e-07, No Iterations 1
GAMG:  Solving for p, Initial residual = 7.7788816e-07, Final residual = 7.7788816e-07, No Iterations 0
diagonal:  Solving for rho, Initial residual = 0, Final residual = 0, No Iterations 0
time step continuity errors : sum local = 3.4464269e-09, global = -1.3402539e-11, cumulative = 7.5212505e-10
DILUPBiCGStab:  Solving for omega, Initial residual = 1.5755297e-05, Final residual = 1.49458e-07, No Iterations 1
DILUPBiCGStab:  Solving for k, Initial residual = 6.4011041e-05, Final residual = 8.7160632e-08, No Iterations 1
ExecutionTime = 18.88 s  ClockTime = 20 s

forceCoeffs forces write:
    Coefficient	Total	Pressure	Viscous	Internal
    Cd:	1.8214354	1.7817874	0.039647981	0
    Cd(f):	-9.3379836	-9.1596699	-0.17831368	0
    Cd(r):	11.159419	10.941457	0.21796166	0
    Cl:	0.23976879	0.23513335	0.004635439	0
    Cl(f):	0.120743	0.11756668	0.0031763293	0
    Cl(r):	0.11902578	0.11756668	0.0014591096	0
    CmPitch:	0.00085860984	-3.8292247e-12	0.00085860984	0
    CmRoll:	-10.248701	-10.050564	-0.19813767	0
    CmYaw:	77.855617	76.1609	1.6947173	0
    Cs:	-8.6378711e-20	-8.6110865e-20	-2.6784625e-22	0
    Cs(f):	77.855617	76.1609	1.6947173	0
    Cs(r):	-77.855617	-76.1609	-1.6947173	0

    writing force and moment coefficient files.

Courant Number mean: 0.049911777 max: 0.90000362
deltaT = 3.6924233e-06
Time = 0.0021729

PIMPLE: iteration 1
diagonal:  Solving for rho, Initial residual = 0, Final residual = 0, No Iterations 0
DILUPBiCGStab:  Solving for Ux, Initial residual = 0.00050082029, Final residual = 2.7988461e-07, No Iterations 1
DILUPBiCGStab:  Solving for Uy, Initial residual = 0.00073585735, Final residual = 5.9065651e-07, No Iterations 1
DILUPBiCGStab:  Solving for e, Initial residual = 0.0050613539, Final residual = 4.551323e-07, No Iterations 2
limitTemperature=limitT, Type=Lower, LimitedCells=0, CellsPercent=0, Tmin=101, UnlimitedTmin=291.57247
limitTemperature=limitT, Type=Upper, LimitedCells=0, CellsPercent=0, Tmax=1000, UnlimitedTmax=294.26938
GAMG:  Solving for p, Initial residual = 0.0060888242, Final residual = 1.4903998e-05, No Iterations 1
GAMG:  Solving for p, Initial residual = 1.6816795e-05, Final residual = 2.3266082e-07, No Iterations 2
diagonal:  Solving for rho, Initial residual = 0, Final residual = 0, No Iterations 0
time step continuity errors : sum local = 1.0304117e-09, global = -8.688208e-12, cumulative = 7.4343684e-10
GAMG:  Solving for p, Initial residual = 3.6713075e-05, Final residual = 6.3999684e-07, No Iterations 1
GAMG:  Solving for p, Initial residual = 7.1584894e-07, Final residual = 7.1584894e-07, No Iterations 0
diagonal:  Solving for rho, Initial residual = 0, Final residual = 0, No Iterations 0
time step continuity errors : sum local = 3.1702812e-09, global = -5.8438192e-11, cumulative = 6.8499865e-10
DILUPBiCGStab:  Solving for omega, Initial residual = 1.5691272e-05, Final residual = 1.4712553e-07, No Iterations 1
DILUPBiCGStab:  Solving for k, Initial residual = 6.4019319e-05, Final residual = 8.6872343e-08, No Iterations 1
ExecutionTime = 18.92 s  ClockTime = 21 s

forceCoeffs forces write:
    Coefficient	Total	Pressure	Viscous	Internal
    Cd:	1.8212995	1.7816649	0.039634629	0
    Cd(f):	-9.3004332	-9.1220021	-0.17843113	0
    Cd(r):	11.121733	10.903667	0.21806576	0
    Cl:	0.23888871	0.23425068	0.0046380305	0
    Cl(f):	0.12030231	0.11712534	0.0031769669	0
    Cl(r):	0.1185864	0.11712534	0.0014610635	0
    CmPitch:	0.0008579517	-4.8133976e-12	0.00085795171	0
    CmRoll:	-10.211083	-10.012835	-0.19824844	0
    CmYaw:	77.849811	76.155664	1.6941466	0
    Cs:	-8.6375808e-20	-8.611272e-20	-2.6308785e-22	0
    Cs(f):	77.849811	76.155664	1.6941466	0
    Cs(r):	-77.849811	-76.155664	-1.6941466	0

    writing force and moment coefficient files.

Courant Number mean: 0.049907825 max: 0.89988894
deltaT = 3.6924233e-06
Time = 0.00217659

PIMPLE: iteration 1
diagonal:  Solving for rho, Initial residual = 0, Final residual = 0, No Iterations 0
DILUPBiCGStab:  Solving for Ux, Initial residual = 0.0005004422, Final residual = 2.7258018e-07, No Iterations 1
DILUPBiCGStab:  Solving for Uy, Initial residual = 0.00073251265, Final residual = 5.6576005e-07, No Iterations 1
DILUPBiCGStab:  Solving for e, Initial residual = 0.0050767791, Final residual = 4.4715248e-07, No Iterations 2
limitTemperature=limitT, Type=Lower, LimitedCells=0, CellsPercent=0, Tmin=101, UnlimitedTmin=291.57635
limitTemperature=limitT, Type=Upper, LimitedCells=0, CellsPercent=0, Tmax=1000, UnlimitedTmax=294.27001
GAMG:  Solving for p, Initial residual = 0.0061001423, Final residual = 1.3966918e-05, No Iterations 1
GAMG:  Solving for p, Initial residual = 1.5927996e-05, Final residual = 2.0949628e-07, No Iterations 2
diagonal:  Solving for rho, Initial residual = 0, Final residual = 0, No Iterations 0
time step continuity errors : sum local = 9.2764465e-10, global = -7.1663738e-12, cumulative = 6.7783228e-10
GAMG:  Solving for p, Initial residual = 3.4807525e-05, Final residual = 4.7610361e-07, No Iterations 1
GAMG:  Solving for p, Initial residual = 5.4882631e-07, Final residual = 5.4882631e-07, No Iterations 0
diagonal:  Solving for rho, Initial residual = 0, Final residual = 0, No Iterations 0
time step continuity errors : sum local = 2.4301427e-09, global = 4.4106793e-11, cumulative = 7.2193907e-10
DILUPBiCGStab:  Solving for omega, Initial residual = 1.5656655e-05, Final residual = 1.4682042e-07, No Iterations 1
