/*---------------------------------------------------------------------------*\
| =========                 |                                                 |
| \\      /  F ield         | OpenFOAM: The Open Source CFD Toolbox           |
|  \\    /   O peration     | Version:  2406                                  |
|   \\  /    A nd           | Website:  www.openfoam.com                      |
|    \\/     M anipulation  |                                                 |
\*---------------------------------------------------------------------------*/
Build  : _be01ca78-20240625 OPENFOAM=2406 version=2406
Arch   : "LSB;label=32;scalar=64"
Exec   : rhoPimpleFoam
Date   : Nov 12 2024
Time   : 22:27:47
Host   : DESKTOP-QF1PE18
PID    : 3543
I/O    : uncollated
Case   : /home/remcovw/openfoam/GITHUB/rhoPimpleFoam_yplus1_omega98_1
nProcs : 1
trapFpe: Floating point exception trapping enabled (FOAM_SIGFPE).
fileModificationChecking : Monitoring run-time modified files using timeStampMaster (fileModificationSkew 5, maxFileModificationPolls 20)
allowSystemOperations : Allowing user-supplied system call operations

// * * * * * * * * * * * * * * * * * * * * * * * * * * * * * * * * * * * * * //
Create time

Create mesh for time = 0.002


PIMPLE: Operating solver in PISO mode

Reading thermophysical properties

Selecting thermodynamics package
{
    type            hePsiThermo;
    mixture         pureMixture;
    transport       sutherland;
    thermo          hConst;
    equationOfState perfectGas;
    specie          specie;
    energy          sensibleInternalEnergy;
}

Reading field U

Reading/calculating face flux field phi

pressureControl
    pMax 202840.54
    pMin 10131.833

Creating turbulence model

Selecting turbulence model type RAS
Selecting RAS turbulence model kOmega
RAS
{
    RASModel        kOmega;
    turbulence      on;
    printCoeffs     on;
    betaStar        0.09;
    beta            0.072;
    gamma           0.52;
    alphaK          0.5;
    alphaOmega      0.5;
}

Creating field dpdt

Creating field kinetic energy K

No MRF models present

Creating finite volume options from "system/fvOptions"

Selecting finite volume options type limitTemperature
    Source: limitT
    - selecting all cells
    - selected 86779 cell(s) with volume 0.059551298
Courant Number mean: 0.086839397 max: 0.88821762

Starting time loop

fieldAverage fieldAverage1:
    Restarting averaging for fields:
        U: starting averaging at time 0.002
        p: starting averaging at time 0.002
        nut: starting averaging at time 0.002

forceCoeffs forces:
    p: p
    U: U
    rho: rhoInf
    Freestream density (rhoInf) set to 1
    Not including porosity effects
    magUInf: 51.471881
    lRef   : 0.011697521
    Aref   : 0.011697521
    rhoInf : 1
    Selecting all coefficients
    - Drag force: Cd
    - Drag force front: Cd(f)
    - Drag force rear: Cd(r)
    - Lift force: Cl
    - Lift force front: Cl(f)
    - Lift force rear: Cl(r)
    - Pitch moment: CmPitch
    - Roll moment: CmRoll
    - Yaw moment: CmYaw
    - Side force: Cs
    - Side force front: Cs(f)
    - Side force rear: Cs(r)


--> FOAM Warning :
    From void Foam::cloudSet::calcSamples(Foam::DynamicList<Foam::Vector<double> >&, Foam::DynamicList<int>&, Foam::DynamicList<int>&, Foam::DynamicList<int>&, Foam::DynamicList<double>&) const
    in file sampledSet/cloud/cloudSet.C at line 128
    For sample set top did not found 256 points out of 256
Print missing points by setting the debug flag for cloud
--> FOAM Warning :
    From void Foam::cloudSet::calcSamples(Foam::DynamicList<Foam::Vector<double> >&, Foam::DynamicList<int>&, Foam::DynamicList<int>&, Foam::DynamicList<int>&, Foam::DynamicList<double>&) const
    in file sampledSet/cloud/cloudSet.C at line 128
    For sample set bottom did not found 256 points out of 256
Print missing points by setting the debug flag for cloud
--> FOAM Warning :
    From Foam::autoPtr<Foam::coordSet> Foam::coordSet::gatherSort(Foam::labelList&) const
    in file coordSet/coordSet.C at line 223
    Gathered empty coordSet: top
--> FOAM Warning :
    From Foam::autoPtr<Foam::coordSet> Foam::coordSet::gatherSort(Foam::labelList&) const
    in file coordSet/coordSet.C at line 223
    Gathered empty coordSet: bottom
Sampled set:
    top -> raw
    bottom -> raw

Courant Number mean: 0.086839397 max: 0.88821762
deltaT = 1.7921147e-06
Time = 0.00200179

PIMPLE: iteration 1
diagonal:  Solving for rho, Initial residual = 0, Final residual = 0, No Iterations 0
DILUPBiCGStab:  Solving for Ux, Initial residual = 0.00091666572, Final residual = 4.7389351e-07, No Iterations 2
DILUPBiCGStab:  Solving for Uy, Initial residual = 0.0014897993, Final residual = 5.231775e-07, No Iterations 2
DILUPBiCGStab:  Solving for e, Initial residual = 0.0089675064, Final residual = 4.7200796e-07, No Iterations 4
limitTemperature=limitT, Type=Lower, LimitedCells=0, CellsPercent=0, Tmin=101, UnlimitedTmin=291.00335
limitTemperature=limitT, Type=Upper, LimitedCells=0, CellsPercent=0, Tmax=1000, UnlimitedTmax=294.15112
GAMG:  Solving for p, Initial residual = 0.012498644, Final residual = 0.00011201425, No Iterations 3
GAMG:  Solving for p, Initial residual = 0.00012692654, Final residual = 1.0876535e-06, No Iterations 25
diagonal:  Solving for rho, Initial residual = 0, Final residual = 0, No Iterations 0
time step continuity errors : sum local = 3.6403185e-09, global = 1.8442435e-09, cumulative = 3.8342328e-07
GAMG:  Solving for p, Initial residual = 0.00031317372, Final residual = 3.0705622e-06, No Iterations 12
GAMG:  Solving for p, Initial residual = 8.1111537e-06, Final residual = 8.4169974e-07, No Iterations 11
diagonal:  Solving for rho, Initial residual = 0, Final residual = 0, No Iterations 0
time step continuity errors : sum local = 2.8176666e-09, global = -1.389375e-09, cumulative = 3.8203391e-07
DILUPBiCGStab:  Solving for omega, Initial residual = 2.4033389e-06, Final residual = 3.0974842e-08, No Iterations 1
DILUPBiCGStab:  Solving for k, Initial residual = 8.4163377e-05, Final residual = 3.2332124e-07, No Iterations 2
ExecutionTime = 2.27 s  ClockTime = 2 s

forceCoeffs forces write:
    Coefficient	Total	Pressure	Viscous	Internal
    Cd:	1.9357348	1.8992695	0.036465362	0
    Cd(f):	-13.485622	-13.277617	-0.20800537	0
    Cd(r):	15.421357	15.176886	0.24447074	0
    Cl:	0.33813999	0.33284714	0.0052928487	0
    Cl(f):	0.17023919	0.16642357	0.0038156223	0
    Cl(r):	0.1679008	0.16642357	0.0014772264	0
    CmPitch:	0.0011691979	-1.7265612e-11	0.0011691979	0
    CmRoll:	-14.45349	-14.227252	-0.22623806	0
    CmYaw:	82.741245	81.182566	1.5586791	0
    Cs:	2.5221358e-21	-2.9594658e-20	3.2116794e-20	0
    Cs(f):	82.741245	81.182566	1.5586791	0
    Cs(r):	-82.741245	-81.182566	-1.5586791	0

    writing force and moment coefficient files.

Courant Number mean: 0.088011867 max: 0.90005506
deltaT = 1.7921147e-06
Time = 0.00200358

PIMPLE: iteration 1
diagonal:  Solving for rho, Initial residual = 0, Final residual = 0, No Iterations 0
DILUPBiCGStab:  Solving for Ux, Initial residual = 0.00091926107, Final residual = 4.6074349e-07, No Iterations 2
DILUPBiCGStab:  Solving for Uy, Initial residual = 0.0015004106, Final residual = 5.1692943e-07, No Iterations 2
DILUPBiCGStab:  Solving for e, Initial residual = 0.010276876, Final residual = 6.0142153e-07, No Iterations 4
limitTemperature=limitT, Type=Lower, LimitedCells=0, CellsPercent=0, Tmin=101, UnlimitedTmin=290.9952
limitTemperature=limitT, Type=Upper, LimitedCells=0, CellsPercent=0, Tmax=1000, UnlimitedTmax=294.15087
GAMG:  Solving for p, Initial residual = 0.012950748, Final residual = 9.5619076e-05, No Iterations 3
GAMG:  Solving for p, Initial residual = 0.00010978542, Final residual = 9.728229e-07, No Iterations 23
diagonal:  Solving for rho, Initial residual = 0, Final residual = 0, No Iterations 0
time step continuity errors : sum local = 3.2505279e-09, global = 1.565633e-09, cumulative = 3.8359954e-07
GAMG:  Solving for p, Initial residual = 0.00031471809, Final residual = 2.4179007e-06, No Iterations 12
GAMG:  Solving for p, Initial residual = 7.5857127e-06, Final residual = 9.1258126e-07, No Iterations 6
diagonal:  Solving for rho, Initial residual = 0, Final residual = 0, No Iterations 0
time step continuity errors : sum local = 3.0502528e-09, global = 5.0985769e-10, cumulative = 3.841094e-07
DILUPBiCGStab:  Solving for omega, Initial residual = 2.4203024e-06, Final residual = 3.1080538e-08, No Iterations 1
DILUPBiCGStab:  Solving for k, Initial residual = 8.4074349e-05, Final residual = 3.2570432e-07, No Iterations 2
ExecutionTime = 2.86 s  ClockTime = 3 s

forceCoeffs forces write:
    Coefficient	Total	Pressure	Viscous	Internal
    Cd:	1.9317008	1.8952843	0.036416539	0
    Cd(f):	-13.437096	-13.227705	-0.20939077	0
    Cd(r):	15.368797	15.122989	0.24580731	0
    Cl:	0.33695752	0.33163283	0.0053246889	0
    Cl(f):	0.16966393	0.16581642	0.0038475154	0
    Cl(r):	0.16729359	0.16581642	0.0014771734	0
    CmPitch:	0.0011851709	-5.1985079e-11	0.001185171	0
    CmRoll:	-14.402946	-14.175347	-0.22759904	0
    CmYaw:	82.568813	81.012221	1.5565922	0
    Cs:	2.0596069e-21	-2.9682628e-20	3.1742235e-20	0
    Cs(f):	82.568813	81.012221	1.5565922	0
    Cs(r):	-82.568813	-81.012221	-1.5565922	0

    writing force and moment coefficient files.

Courant Number mean: 0.088002541 max: 0.89980553
deltaT = 1.7921147e-06
Time = 0.00200538

PIMPLE: iteration 1
diagonal:  Solving for rho, Initial residual = 0, Final residual = 0, No Iterations 0
DILUPBiCGStab:  Solving for Ux, Initial residual = 0.00092202874, Final residual = 4.7488311e-07, No Iterations 2
DILUPBiCGStab:  Solving for Uy, Initial residual = 0.0015124306, Final residual = 5.2691735e-07, No Iterations 2
DILUPBiCGStab:  Solving for e, Initial residual = 0.010139966, Final residual = 5.637719e-07, No Iterations 4
limitTemperature=limitT, Type=Lower, LimitedCells=0, CellsPercent=0, Tmin=101, UnlimitedTmin=290.84173
limitTemperature=limitT, Type=Upper, LimitedCells=0, CellsPercent=0, Tmax=1000, UnlimitedTmax=294.15228
GAMG:  Solving for p, Initial residual = 0.012897943, Final residual = 0.00010880706, No Iterations 3
GAMG:  Solving for p, Initial residual = 0.00012267929, Final residual = 1.1215699e-06, No Iterations 25
diagonal:  Solving for rho, Initial residual = 0, Final residual = 0, No Iterations 0
time step continuity errors : sum local = 3.7432104e-09, global = 1.8809168e-09, cumulative = 3.8599032e-07
GAMG:  Solving for p, Initial residual = 0.00030487281, Final residual = 2.2746179e-06, No Iterations 14
GAMG:  Solving for p, Initial residual = 7.5220242e-06, Final residual = 7.6973417e-07, No Iterations 6
diagonal:  Solving for rho, Initial residual = 0, Final residual = 0, No Iterations 0
time step continuity errors : sum local = 2.5694399e-09, global = 5.9721797e-10, cumulative = 3.8658753e-07
DILUPBiCGStab:  Solving for omega, Initial residual = 2.4247912e-06, Final residual = 3.0602767e-08, No Iterations 1
DILUPBiCGStab:  Solving for k, Initial residual = 8.4156121e-05, Final residual = 3.2705656e-07, No Iterations 2
ExecutionTime = 3.48 s  ClockTime = 3 s

forceCoeffs forces write:
    Coefficient	Total	Pressure	Viscous	Internal
    Cd:	1.9270294	1.8906664	0.036363049	0
    Cd(f):	-13.586359	-13.375862	-0.21049701	0
    Cd(r):	15.513389	15.266528	0.24686005	0
    Cl:	0.3403949	0.33504496	0.0053499437	0
    Cl(f):	0.17138929	0.16752248	0.0038668076	0
    Cl(r):	0.16900561	0.16752248	0.0014831361	0
    CmPitch:	0.0011918358	2.9855381e-11	0.0011918358	0
    CmRoll:	-14.549874	-14.321195	-0.22867853	0
    CmYaw:	82.369139	80.814833	1.5543058	0
    Cs:	9.9454287e-21	-2.96259e-20	3.9571329e-20	0
    Cs(f):	82.369139	80.814833	1.5543058	0
    Cs(r):	-82.369139	-80.814833	-1.5543058	0

    writing force and moment coefficient files.

Courant Number mean: 0.087993305 max: 0.8995587
deltaT = 1.7921147e-06
Time = 0.00200717

PIMPLE: iteration 1
diagonal:  Solving for rho, Initial residual = 0, Final residual = 0, No Iterations 0
DILUPBiCGStab:  Solving for Ux, Initial residual = 0.00092478381, Final residual = 4.780134e-07, No Iterations 2
DILUPBiCGStab:  Solving for Uy, Initial residual = 0.0015223394, Final residual = 5.2937014e-07, No Iterations 2
DILUPBiCGStab:  Solving for e, Initial residual = 0.010039742, Final residual = 5.8056601e-07, No Iterations 4
limitTemperature=limitT, Type=Lower, LimitedCells=0, CellsPercent=0, Tmin=101, UnlimitedTmin=290.94876
limitTemperature=limitT, Type=Upper, LimitedCells=0, CellsPercent=0, Tmax=1000, UnlimitedTmax=294.1536
GAMG:  Solving for p, Initial residual = 0.012839425, Final residual = 9.3790061e-05, No Iterations 3
GAMG:  Solving for p, Initial residual = 0.00010745491, Final residual = 9.5359575e-07, No Iterations 23
diagonal:  Solving for rho, Initial residual = 0, Final residual = 0, No Iterations 0
time step continuity errors : sum local = 3.1788368e-09, global = 1.5735985e-09, cumulative = 3.8816113e-07
GAMG:  Solving for p, Initial residual = 0.00030488582, Final residual = 2.6272038e-06, No Iterations 12
GAMG:  Solving for p, Initial residual = 7.7004553e-06, Final residual = 7.644663e-07, No Iterations 8
diagonal:  Solving for rho, Initial residual = 0, Final residual = 0, No Iterations 0
time step continuity errors : sum local = 2.5485713e-09, global = 1.220579e-09, cumulative = 3.8938171e-07
DILUPBiCGStab:  Solving for omega, Initial residual = 2.5182166e-06, Final residual = 3.0285778e-08, No Iterations 1
DILUPBiCGStab:  Solving for k, Initial residual = 8.4027151e-05, Final residual = 3.2272809e-07, No Iterations 2
ExecutionTime = 4.08 s  ClockTime = 4 s

forceCoeffs forces write:
    Coefficient	Total	Pressure	Viscous	Internal
    Cd:	1.9302992	1.8939472	0.036352087	0
    Cd(f):	-13.738	-13.526968	-0.21103198	0
    Cd(r):	15.668299	15.420915	0.24738406	0
    Cl:	0.34398078	0.33861845	0.0053623311	0
    Cl(f):	0.17317947	0.16930923	0.0038702413	0
    Cl(r):	0.17080132	0.16930923	0.0014920898	0
    CmPitch:	0.0011890758	6.6778107e-11	0.0011890757	0
    CmRoll:	-14.703149	-14.473941	-0.22920802	0
    CmYaw:	82.508905	80.955068	1.5538373	0
    Cs:	-3.8938725e-21	-2.9540094e-20	2.5646222e-20	0
    Cs(f):	82.508905	80.955068	1.5538373	0
    Cs(r):	-82.508905	-80.955068	-1.5538373	0

    writing force and moment coefficient files.

Courant Number mean: 0.087984333 max: 0.89931396
deltaT = 1.7921147e-06
Time = 0.00200896

PIMPLE: iteration 1
diagonal:  Solving for rho, Initial residual = 0, Final residual = 0, No Iterations 0
DILUPBiCGStab:  Solving for Ux, Initial residual = 0.00092742262, Final residual = 4.9257071e-07, No Iterations 2
DILUPBiCGStab:  Solving for Uy, Initial residual = 0.001534883, Final residual = 5.1526967e-07, No Iterations 2
DILUPBiCGStab:  Solving for e, Initial residual = 0.0099261254, Final residual = 5.6926985e-07, No Iterations 4
limitTemperature=limitT, Type=Lower, LimitedCells=0, CellsPercent=0, Tmin=101, UnlimitedTmin=291.09803
limitTemperature=limitT, Type=Upper, LimitedCells=0, CellsPercent=0, Tmax=1000, UnlimitedTmax=294.15482
GAMG:  Solving for p, Initial residual = 0.012786259, Final residual = 0.00010223693, No Iterations 3
GAMG:  Solving for p, Initial residual = 0.00011605291, Final residual = 9.0118961e-07, No Iterations 25
diagonal:  Solving for rho, Initial residual = 0, Final residual = 0, No Iterations 0
time step continuity errors : sum local = 3.0010678e-09, global = 1.5045952e-09, cumulative = 3.9088631e-07
GAMG:  Solving for p, Initial residual = 0.00030238475, Final residual = 2.4867487e-06, No Iterations 12
GAMG:  Solving for p, Initial residual = 7.5243422e-06, Final residual = 7.9182013e-07, No Iterations 8
diagonal:  Solving for rho, Initial residual = 0, Final residual = 0, No Iterations 0
time step continuity errors : sum local = 2.6374154e-09, global = 1.4013737e-09, cumulative = 3.9228768e-07
DILUPBiCGStab:  Solving for omega, Initial residual = 2.2933665e-06, Final residual = 2.9666269e-08, No Iterations 1
DILUPBiCGStab:  Solving for k, Initial residual = 8.4060424e-05, Final residual = 3.2629336e-07, No Iterations 2
ExecutionTime = 4.7 s  ClockTime = 4 s

forceCoeffs forces write:
    Coefficient	Total	Pressure	Viscous	Internal
    Cd:	1.9274822	1.891156	0.036326124	0
    Cd(f):	-13.738222	-13.526406	-0.2118161	0
    Cd(r):	15.665704	15.417562	0.24814222	0
    Cl:	0.34395303	0.33857266	0.005380372	0
    Cl(f):	0.17316461	0.16928633	0.0038782787	0
    Cl(r):	0.17078842	0.16928633	0.0015020933	0
    CmPitch:	0.0011880927	-1.7785834e-11	0.0011880927	0
    CmRoll:	-14.701963	-14.471984	-0.22997916	0
    CmYaw:	82.388491	80.835764	1.5527275	0
    Cs:	2.5849826e-21	-2.9607049e-20	3.2192031e-20	0
    Cs(f):	82.388491	80.835764	1.5527275	0
    Cs(r):	-82.388491	-80.835764	-1.5527275	0

    writing force and moment coefficient files.

Courant Number mean: 0.087975289 max: 0.89907075
deltaT = 1.7953613e-06
Time = 0.00201076

PIMPLE: iteration 1
diagonal:  Solving for rho, Initial residual = 0, Final residual = 0, No Iterations 0
DILUPBiCGStab:  Solving for Ux, Initial residual = 0.00093159438, Final residual = 4.729499e-07, No Iterations 2
DILUPBiCGStab:  Solving for Uy, Initial residual = 0.0015486418, Final residual = 5.20234e-07, No Iterations 2
DILUPBiCGStab:  Solving for e, Initial residual = 0.0098339331, Final residual = 5.8829771e-07, No Iterations 4
limitTemperature=limitT, Type=Lower, LimitedCells=0, CellsPercent=0, Tmin=101, UnlimitedTmin=291.00422
limitTemperature=limitT, Type=Upper, LimitedCells=0, CellsPercent=0, Tmax=1000, UnlimitedTmax=294.15593
GAMG:  Solving for p, Initial residual = 0.012735315, Final residual = 9.442891e-05, No Iterations 3
GAMG:  Solving for p, Initial residual = 0.00010780488, Final residual = 1.0137352e-06, No Iterations 23
diagonal:  Solving for rho, Initial residual = 0, Final residual = 0, No Iterations 0
time step continuity errors : sum local = 3.3722798e-09, global = 1.6430039e-09, cumulative = 3.9393068e-07
GAMG:  Solving for p, Initial residual = 0.00029209096, Final residual = 2.5206646e-06, No Iterations 12
GAMG:  Solving for p, Initial residual = 7.4188141e-06, Final residual = 9.3016149e-07, No Iterations 8
diagonal:  Solving for rho, Initial residual = 0, Final residual = 0, No Iterations 0
time step continuity errors : sum local = 3.0954142e-09, global = 1.5476581e-09, cumulative = 3.9547834e-07
DILUPBiCGStab:  Solving for omega, Initial residual = 2.3667265e-06, Final residual = 3.0766597e-08, No Iterations 1
DILUPBiCGStab:  Solving for k, Initial residual = 8.4186573e-05, Final residual = 3.2753953e-07, No Iterations 2
ExecutionTime = 5.3 s  ClockTime = 5 s

forceCoeffs forces write:
    Coefficient	Total	Pressure	Viscous	Internal
    Cd:	1.9257977	1.8895252	0.036272505	0
    Cd(f):	-13.713817	-13.502062	-0.21175552	0
    Cd(r):	15.639615	15.391587	0.24802803	0
    Cl:	0.34336238	0.33798405	0.0053783275	0
    Cl(f):	0.17288942	0.16899203	0.0038973903	0
    Cl(r):	0.17047296	0.16899203	0.0014809372	0
    CmPitch:	0.0012082265	-4.9578229e-11	0.0012082265	0
    CmRoll:	-14.676716	-14.446824	-0.22989177	0
    CmYaw:	82.31649	80.766055	1.5504356	0
    Cs:	3.7773813e-23	-2.9677713e-20	2.9715487e-20	0
    Cs(f):	82.31649	80.766055	1.5504356	0
    Cs(r):	-82.31649	-80.766055	-1.5504356	0

    writing force and moment coefficient files.

Courant Number mean: 0.088125551 max: 0.90045588
deltaT = 1.7953613e-06
Time = 0.00201255

PIMPLE: iteration 1
diagonal:  Solving for rho, Initial residual = 0, Final residual = 0, No Iterations 0
DILUPBiCGStab:  Solving for Ux, Initial residual = 0.00093374851, Final residual = 4.9571607e-07, No Iterations 2
DILUPBiCGStab:  Solving for Uy, Initial residual = 0.0015591453, Final residual = 5.268258e-07, No Iterations 2
DILUPBiCGStab:  Solving for e, Initial residual = 0.0097276149, Final residual = 5.6497209e-07, No Iterations 4
limitTemperature=limitT, Type=Lower, LimitedCells=0, CellsPercent=0, Tmin=101, UnlimitedTmin=290.96521
limitTemperature=limitT, Type=Upper, LimitedCells=0, CellsPercent=0, Tmax=1000, UnlimitedTmax=294.15694
GAMG:  Solving for p, Initial residual = 0.012683617, Final residual = 0.00010251453, No Iterations 3
GAMG:  Solving for p, Initial residual = 0.00011553171, Final residual = 1.0348137e-06, No Iterations 25
diagonal:  Solving for rho, Initial residual = 0, Final residual = 0, No Iterations 0
time step continuity errors : sum local = 3.4407848e-09, global = 1.7448404e-09, cumulative = 3.9722318e-07
GAMG:  Solving for p, Initial residual = 0.00028941197, Final residual = 2.1608546e-06, No Iterations 14
GAMG:  Solving for p, Initial residual = 7.3301577e-06, Final residual = 9.6405438e-07, No Iterations 4
diagonal:  Solving for rho, Initial residual = 0, Final residual = 0, No Iterations 0
time step continuity errors : sum local = 3.2061507e-09, global = 4.9450771e-10, cumulative = 3.9771769e-07
DILUPBiCGStab:  Solving for omega, Initial residual = 2.4582205e-06, Final residual = 3.0239607e-08, No Iterations 1
DILUPBiCGStab:  Solving for k, Initial residual = 8.4213887e-05, Final residual = 3.2885254e-07, No Iterations 2
ExecutionTime = 5.87 s  ClockTime = 6 s

forceCoeffs forces write:
    Coefficient	Total	Pressure	Viscous	Internal
    Cd:	1.920645	1.8844088	0.036236208	0
    Cd(f):	-13.693216	-13.480863	-0.21235297	0
    Cd(r):	15.613861	15.365272	0.24858918	0
    Cl:	0.34282015	0.33742827	0.0053918803	0
    Cl(f):	0.17262663	0.16871413	0.0039125002	0
    Cl(r):	0.17019351	0.16871413	0.0014793801	0
    CmPitch:	0.0012165601	3.2815944e-11	0.0012165601	0
    CmRoll:	-14.653539	-14.423068	-0.23047107	0
    CmYaw:	82.096244	80.54736	1.5488841	0
    Cs:	1.2309343e-20	-2.9630427e-20	4.193977e-20	0
    Cs(f):	82.096244	80.54736	1.5488841	0
    Cs(r):	-82.096244	-80.54736	-1.5488841	0

    writing force and moment coefficient files.

Courant Number mean: 0.088116405 max: 0.90021394
deltaT = 1.7953613e-06
Time = 0.00201435

PIMPLE: iteration 1
diagonal:  Solving for rho, Initial residual = 0, Final residual = 0, No Iterations 0
DILUPBiCGStab:  Solving for Ux, Initial residual = 0.00093566761, Final residual = 5.0213775e-07, No Iterations 2
DILUPBiCGStab:  Solving for Uy, Initial residual = 0.0015683823, Final residual = 5.3309081e-07, No Iterations 2
DILUPBiCGStab:  Solving for e, Initial residual = 0.0096336692, Final residual = 5.7943939e-07, No Iterations 4
limitTemperature=limitT, Type=Lower, LimitedCells=0, CellsPercent=0, Tmin=101, UnlimitedTmin=291.02722
limitTemperature=limitT, Type=Upper, LimitedCells=0, CellsPercent=0, Tmax=1000, UnlimitedTmax=294.15784
GAMG:  Solving for p, Initial residual = 0.012638538, Final residual = 9.1372087e-05, No Iterations 3
GAMG:  Solving for p, Initial residual = 0.00010446332, Final residual = 8.7588606e-07, No Iterations 23
diagonal:  Solving for rho, Initial residual = 0, Final residual = 0, No Iterations 0
time step continuity errors : sum local = 2.9099754e-09, global = 1.4420694e-09, cumulative = 3.9915976e-07
GAMG:  Solving for p, Initial residual = 0.00029774229, Final residual = 2.2115048e-06, No Iterations 12
GAMG:  Solving for p, Initial residual = 7.1847795e-06, Final residual = 7.7059985e-07, No Iterations 6
diagonal:  Solving for rho, Initial residual = 0, Final residual = 0, No Iterations 0
time step continuity errors : sum local = 2.5607067e-09, global = 9.4495663e-10, cumulative = 4.0010472e-07
DILUPBiCGStab:  Solving for omega, Initial residual = 2.4460122e-06, Final residual = 2.9844399e-08, No Iterations 1
DILUPBiCGStab:  Solving for k, Initial residual = 8.4180711e-05, Final residual = 3.2507368e-07, No Iterations 2
ExecutionTime = 6.5 s  ClockTime = 6 s

forceCoeffs forces write:
    Coefficient	Total	Pressure	Viscous	Internal
    Cd:	1.9266801	1.890472	0.036208029	0
    Cd(f):	-14.086596	-13.872816	-0.21377983	0
    Cd(r):	16.013276	15.763288	0.24998786	0
    Cl:	0.35209387	0.34666894	0.005424932	0
    Cl(f):	0.1772669	0.17333447	0.0039324324	0
    Cl(r):	0.17482697	0.17333447	0.0014924997	0
    CmPitch:	0.0012199664	6.3869118e-11	0.0012199664	0
    CmRoll:	-15.049936	-14.818052	-0.23188384	0
    CmYaw:	82.354207	80.806527	1.5476796	0
    Cs:	-4.3263772e-21	-2.9553974e-20	2.5227597e-20	0
    Cs(f):	82.354207	80.806527	1.5476796	0
    Cs(r):	-82.354207	-80.806527	-1.5476796	0

    writing force and moment coefficient files.

Courant Number mean: 0.088107422 max: 0.89997343
deltaT = 1.7953613e-06
Time = 0.00201614

PIMPLE: iteration 1
diagonal:  Solving for rho, Initial residual = 0, Final residual = 0, No Iterations 0
DILUPBiCGStab:  Solving for Ux, Initial residual = 0.00093721412, Final residual = 5.1150292e-07, No Iterations 2
DILUPBiCGStab:  Solving for Uy, Initial residual = 0.0015789537, Final residual = 5.2269799e-07, No Iterations 2
DILUPBiCGStab:  Solving for e, Initial residual = 0.0095386896, Final residual = 5.6244012e-07, No Iterations 4
limitTemperature=limitT, Type=Lower, LimitedCells=0, CellsPercent=0, Tmin=101, UnlimitedTmin=291.10046
limitTemperature=limitT, Type=Upper, LimitedCells=0, CellsPercent=0, Tmax=1000, UnlimitedTmax=294.15866
GAMG:  Solving for p, Initial residual = 0.012582597, Final residual = 0.000100645, No Iterations 3
GAMG:  Solving for p, Initial residual = 0.000113743, Final residual = 9.2109562e-07, No Iterations 25
diagonal:  Solving for rho, Initial residual = 0, Final residual = 0, No Iterations 0
time step continuity errors : sum local = 3.0592234e-09, global = 1.5490166e-09, cumulative = 4.0165373e-07
GAMG:  Solving for p, Initial residual = 0.00028605534, Final residual = 2.4482435e-06, No Iterations 12
GAMG:  Solving for p, Initial residual = 7.1988611e-06, Final residual = 9.2588959e-07, No Iterations 8
diagonal:  Solving for rho, Initial residual = 0, Final residual = 0, No Iterations 0
time step continuity errors : sum local = 3.0753518e-09, global = -1.2425799e-09, cumulative = 4.0041115e-07
DILUPBiCGStab:  Solving for omega, Initial residual = 2.2708704e-06, Final residual = 2.9060168e-08, No Iterations 1
DILUPBiCGStab:  Solving for k, Initial residual = 8.4191892e-05, Final residual = 3.2795182e-07, No Iterations 2
ExecutionTime = 7.09 s  ClockTime = 7 s

forceCoeffs forces write:
    Coefficient	Total	Pressure	Viscous	Internal
    Cd:	1.9211713	1.8849745	0.036196764	0
    Cd(f):	-13.798573	-13.584594	-0.21397872	0
    Cd(r):	15.719744	15.469569	0.25017548	0
    Cl:	0.34529113	0.33986167	0.0054294533	0
    Cl(f):	0.17386817	0.16993084	0.003937336	0
    Cl(r):	0.17142295	0.16993084	0.0014921174	0
    CmPitch:	0.0012226093	-1.8654253e-11	0.0012226093	0
    CmRoll:	-14.759159	-14.527081	-0.2320771	0
    CmYaw:	82.118738	80.571539	1.5471981	0
    Cs:	9.9841213e-22	-2.9613684e-20	3.0612096e-20	0
    Cs(f):	82.118738	80.571539	1.5471981	0
    Cs(r):	-82.118738	-80.571539	-1.5471981	0

    writing force and moment coefficient files.

Courant Number mean: 0.088098371 max: 0.89973438
deltaT = 1.7953613e-06
Time = 0.00201794

PIMPLE: iteration 1
diagonal:  Solving for rho, Initial residual = 0, Final residual = 0, No Iterations 0
DILUPBiCGStab:  Solving for Ux, Initial residual = 0.00093881574, Final residual = 4.8745293e-07, No Iterations 2
DILUPBiCGStab:  Solving for Uy, Initial residual = 0.0015874579, Final residual = 5.2974921e-07, No Iterations 2
DILUPBiCGStab:  Solving for e, Initial residual = 0.0094528143, Final residual = 5.7901089e-07, No Iterations 4
limitTemperature=limitT, Type=Lower, LimitedCells=0, CellsPercent=0, Tmin=101, UnlimitedTmin=290.99144
limitTemperature=limitT, Type=Upper, LimitedCells=0, CellsPercent=0, Tmax=1000, UnlimitedTmax=294.15939
GAMG:  Solving for p, Initial residual = 0.01252881, Final residual = 9.2190693e-05, No Iterations 3
GAMG:  Solving for p, Initial residual = 0.00010490405, Final residual = 9.7796973e-07, No Iterations 23
diagonal:  Solving for rho, Initial residual = 0, Final residual = 0, No Iterations 0
time step continuity errors : sum local = 3.2454249e-09, global = 1.529431e-09, cumulative = 4.0194058e-07
GAMG:  Solving for p, Initial residual = 0.00028176671, Final residual = 2.2755861e-06, No Iterations 14
GAMG:  Solving for p, Initial residual = 7.1232933e-06, Final residual = 7.8469901e-07, No Iterations 6
diagonal:  Solving for rho, Initial residual = 0, Final residual = 0, No Iterations 0
time step continuity errors : sum local = 2.6050805e-09, global = 8.0757447e-10, cumulative = 4.0274816e-07
DILUPBiCGStab:  Solving for omega, Initial residual = 2.3194122e-06, Final residual = 2.9874791e-08, No Iterations 1
DILUPBiCGStab:  Solving for k, Initial residual = 8.419436e-05, Final residual = 3.2667525e-07, No Iterations 2
ExecutionTime = 7.65 s  ClockTime = 7 s

forceCoeffs forces write:
    Coefficient	Total	Pressure	Viscous	Internal
    Cd:	1.9204103	1.884259	0.036151272	0
    Cd(f):	-13.921211	-13.706956	-0.21425458	0
    Cd(r):	15.841621	15.591215	0.25040585	0
    Cl:	0.34815133	0.34271596	0.005435375	0
    Cl(f):	0.17531097	0.17135798	0.0039529892	0
    Cl(r):	0.17284037	0.17135798	0.0014823858	0
    CmPitch:	0.0012353017	-4.9764367e-11	0.0012353017	0
    CmRoll:	-14.881416	-14.649085	-0.23233021	0
    CmYaw:	82.086209	80.540956	1.5452536	0
    Cs:	-3.7850473e-22	-2.9680787e-20	2.9302282e-20	0
    Cs(f):	82.086209	80.540956	1.5452536	0
    Cs(r):	-82.086209	-80.540956	-1.5452536	0

    writing force and moment coefficient files.

Courant Number mean: 0.088089285 max: 0.89949634
deltaT = 1.7953613e-06
Time = 0.00201973

PIMPLE: iteration 1
diagonal:  Solving for rho, Initial residual = 0, Final residual = 0, No Iterations 0
DILUPBiCGStab:  Solving for Ux, Initial residual = 0.00094027596, Final residual = 5.0806562e-07, No Iterations 2
DILUPBiCGStab:  Solving for Uy, Initial residual = 0.0015955575, Final residual = 5.4162442e-07, No Iterations 2
DILUPBiCGStab:  Solving for e, Initial residual = 0.0093747327, Final residual = 5.5789788e-07, No Iterations 4
limitTemperature=limitT, Type=Lower, LimitedCells=0, CellsPercent=0, Tmin=101, UnlimitedTmin=290.996
limitTemperature=limitT, Type=Upper, LimitedCells=0, CellsPercent=0, Tmax=1000, UnlimitedTmax=294.16042
GAMG:  Solving for p, Initial residual = 0.012487781, Final residual = 9.5618853e-05, No Iterations 3
GAMG:  Solving for p, Initial residual = 0.00010825727, Final residual = 9.4665817e-07, No Iterations 25
diagonal:  Solving for rho, Initial residual = 0, Final residual = 0, No Iterations 0
time step continuity errors : sum local = 3.1410065e-09, global = 1.5691341e-09, cumulative = 4.0431729e-07
GAMG:  Solving for p, Initial residual = 0.00028128788, Final residual = 2.5470607e-06, No Iterations 12
GAMG:  Solving for p, Initial residual = 7.5365216e-06, Final residual = 8.2542543e-07, No Iterations 8
diagonal:  Solving for rho, Initial residual = 0, Final residual = 0, No Iterations 0
time step continuity errors : sum local = 2.7392209e-09, global = 1.3461965e-09, cumulative = 4.0566349e-07
DILUPBiCGStab:  Solving for omega, Initial residual = 2.3960675e-06, Final residual = 2.9165581e-08, No Iterations 1
DILUPBiCGStab:  Solving for k, Initial residual = 8.4232556e-05, Final residual = 3.2894705e-07, No Iterations 2
ExecutionTime = 8.28 s  ClockTime = 8 s

forceCoeffs forces write:
    Coefficient	Total	Pressure	Viscous	Internal
    Cd:	1.9188575	1.882748	0.036109566	0
    Cd(f):	-13.97926	-13.763776	-0.21548462	0
    Cd(r):	15.898118	15.646524	0.25159418	0
    Cl:	0.34949125	0.34402758	0.0054636639	0
    Cl(f):	0.17599107	0.17201379	0.0039772807	0
    Cl(r):	0.17350017	0.17201379	0.0014863833	0
    CmPitch:	0.0012454487	3.266265e-11	0.0012454487	0
    CmRoll:	-14.938689	-14.70515	-0.2335394	0
    CmYaw:	82.01984	80.476369	1.5434709	0
    Cs:	1.060389e-20	-2.9633982e-20	4.0237872e-20	0
    Cs(f):	82.01984	80.476369	1.5434709	0
    Cs(r):	-82.01984	-80.476369	-1.5434709	0

    writing force and moment coefficient files.

Courant Number mean: 0.08808019 max: 0.89926076
deltaT = 1.7953613e-06
Time = 0.00202153

PIMPLE: iteration 1
diagonal:  Solving for rho, Initial residual = 0, Final residual = 0, No Iterations 0
DILUPBiCGStab:  Solving for Ux, Initial residual = 0.00094127516, Final residual = 5.1277524e-07, No Iterations 2
DILUPBiCGStab:  Solving for Uy, Initial residual = 0.0016025742, Final residual = 5.4724324e-07, No Iterations 2
DILUPBiCGStab:  Solving for e, Initial residual = 0.0092998117, Final residual = 5.633718e-07, No Iterations 4
limitTemperature=limitT, Type=Lower, LimitedCells=0, CellsPercent=0, Tmin=101, UnlimitedTmin=291.16267
limitTemperature=limitT, Type=Upper, LimitedCells=0, CellsPercent=0, Tmax=1000, UnlimitedTmax=294.1644
GAMG:  Solving for p, Initial residual = 0.012443777, Final residual = 8.6743604e-05, No Iterations 3
GAMG:  Solving for p, Initial residual = 9.9461951e-05, Final residual = 7.3527889e-07, No Iterations 23
diagonal:  Solving for rho, Initial residual = 0, Final residual = 0, No Iterations 0
time step continuity errors : sum local = 2.4386542e-09, global = 1.2170823e-09, cumulative = 4.0688057e-07
GAMG:  Solving for p, Initial residual = 0.00028728657, Final residual = 2.2445447e-06, No Iterations 12
GAMG:  Solving for p, Initial residual = 7.0946761e-06, Final residual = 7.9517826e-07, No Iterations 6
diagonal:  Solving for rho, Initial residual = 0, Final residual = 0, No Iterations 0
time step continuity errors : sum local = 2.6376987e-09, global = 1.0910638e-09, cumulative = 4.0797164e-07
DILUPBiCGStab:  Solving for omega, Initial residual = 2.33331e-06, Final residual = 2.884176e-08, No Iterations 1
DILUPBiCGStab:  Solving for k, Initial residual = 8.4228172e-05, Final residual = 3.2485647e-07, No Iterations 2
ExecutionTime = 8.84 s  ClockTime = 9 s

forceCoeffs forces write:
    Coefficient	Total	Pressure	Viscous	Internal
    Cd:	1.9220716	1.8859884	0.036083146	0
    Cd(f):	-14.209912	-13.993117	-0.21679539	0
    Cd(r):	16.131984	15.879105	0.25287854	0
    Cl:	0.35492496	0.34943094	0.0054940206	0
    Cl(f):	0.17871158	0.17471547	0.0039961089	0
    Cl(r):	0.17621338	0.17471547	0.0014979117	0
    CmPitch:	0.0012490987	6.3007175e-11	0.0012490986	0
    CmRoll:	-15.170948	-14.936111	-0.23483697	0
    CmYaw:	82.15722	80.614878	1.5423416	0
    Cs:	-4.3503175e-21	-2.9561412e-20	2.5211095e-20	0
    Cs(f):	82.15722	80.614878	1.5423416	0
    Cs(r):	-82.15722	-80.614878	-1.5423416	0

    writing force and moment coefficient files.

Courant Number mean: 0.088071228 max: 0.8990279
deltaT = 1.7986616e-06
Time = 0.00202333

PIMPLE: iteration 1
diagonal:  Solving for rho, Initial residual = 0, Final residual = 0, No Iterations 0
DILUPBiCGStab:  Solving for Ux, Initial residual = 0.00094343957, Final residual = 5.2015552e-07, No Iterations 2
DILUPBiCGStab:  Solving for Uy, Initial residual = 0.0016131646, Final residual = 5.4239622e-07, No Iterations 2
DILUPBiCGStab:  Solving for e, Initial residual = 0.009242838, Final residual = 5.5308729e-07, No Iterations 4
limitTemperature=limitT, Type=Lower, LimitedCells=0, CellsPercent=0, Tmin=101, UnlimitedTmin=291.09347
limitTemperature=limitT, Type=Upper, LimitedCells=0, CellsPercent=0, Tmax=1000, UnlimitedTmax=294.16825
GAMG:  Solving for p, Initial residual = 0.012413459, Final residual = 9.6055458e-05, No Iterations 3
GAMG:  Solving for p, Initial residual = 0.00010892937, Final residual = 8.6807732e-07, No Iterations 25
diagonal:  Solving for rho, Initial residual = 0, Final residual = 0, No Iterations 0
time step continuity errors : sum local = 2.878145e-09, global = 1.4578661e-09, cumulative = 4.094295e-07
GAMG:  Solving for p, Initial residual = 0.00027461741, Final residual = 2.3440341e-06, No Iterations 12
GAMG:  Solving for p, Initial residual = 7.0021052e-06, Final residual = 9.523276e-07, No Iterations 8
diagonal:  Solving for rho, Initial residual = 0, Final residual = 0, No Iterations 0
time step continuity errors : sum local = 3.1578981e-09, global = 9.630554e-10, cumulative = 4.1039256e-07
DILUPBiCGStab:  Solving for omega, Initial residual = 2.1830743e-06, Final residual = 2.8509928e-08, No Iterations 1
DILUPBiCGStab:  Solving for k, Initial residual = 8.4397571e-05, Final residual = 3.2930649e-07, No Iterations 2
ExecutionTime = 9.45 s  ClockTime = 9 s

forceCoeffs forces write:
    Coefficient	Total	Pressure	Viscous	Internal
    Cd:	1.9204535	1.8843947	0.036058799	0
    Cd(f):	-14.101828	-13.88489	-0.21693807	0
    Cd(r):	16.022281	15.769285	0.25299687	0
    Cl:	0.35237739	0.34688032	0.0054970736	0
    Cl(f):	0.17743605	0.17344016	0.0039958941	0
    Cl(r):	0.17494134	0.17344016	0.0015011795	0
    CmPitch:	0.0012473573	-1.9754554e-11	0.0012473573	0
    CmRoll:	-15.062055	-14.827087	-0.23496747	0
    CmYaw:	82.088058	80.546757	1.5413009	0
    Cs:	1.5028304e-22	-2.9627781e-20	2.9778064e-20	0
    Cs(f):	82.088058	80.546757	1.5413009	0
    Cs(r):	-82.088058	-80.546757	-1.5413009	0

    writing force and moment coefficient files.

Courant Number mean: 0.088224087 max: 0.90044989
deltaT = 1.7986616e-06
Time = 0.00202513

PIMPLE: iteration 1
diagonal:  Solving for rho, Initial residual = 0, Final residual = 0, No Iterations 0
DILUPBiCGStab:  Solving for Ux, Initial residual = 0.00094367514, Final residual = 4.9792188e-07, No Iterations 2
DILUPBiCGStab:  Solving for Uy, Initial residual = 0.001618722, Final residual = 5.4320327e-07, No Iterations 2
DILUPBiCGStab:  Solving for e, Initial residual = 0.0091768165, Final residual = 5.7053044e-07, No Iterations 4
limitTemperature=limitT, Type=Lower, LimitedCells=0, CellsPercent=0, Tmin=101, UnlimitedTmin=291.08007
limitTemperature=limitT, Type=Upper, LimitedCells=0, CellsPercent=0, Tmax=1000, UnlimitedTmax=294.17226
GAMG:  Solving for p, Initial residual = 0.012371391, Final residual = 8.6424152e-05, No Iterations 3
GAMG:  Solving for p, Initial residual = 9.8780332e-05, Final residual = 8.34026e-07, No Iterations 23
diagonal:  Solving for rho, Initial residual = 0, Final residual = 0, No Iterations 0
time step continuity errors : sum local = 2.764373e-09, global = 1.3039976e-09, cumulative = 4.1169655e-07
GAMG:  Solving for p, Initial residual = 0.00027016874, Final residual = 2.6461625e-06, No Iterations 12
GAMG:  Solving for p, Initial residual = 7.3553515e-06, Final residual = 8.2686159e-07, No Iterations 8
diagonal:  Solving for rho, Initial residual = 0, Final residual = 0, No Iterations 0
time step continuity errors : sum local = 2.7412798e-09, global = 1.2817892e-09, cumulative = 4.1297834e-07
DILUPBiCGStab:  Solving for omega, Initial residual = 2.2385925e-06, Final residual = 2.9461069e-08, No Iterations 1
DILUPBiCGStab:  Solving for k, Initial residual = 8.4417992e-05, Final residual = 3.2862935e-07, No Iterations 2
ExecutionTime = 10.02 s  ClockTime = 10 s

forceCoeffs forces write:
    Coefficient	Total	Pressure	Viscous	Internal
    Cd:	1.9142635	1.8782655	0.035998027	0
    Cd(f):	-13.968724	-13.751578	-0.21714605	0
    Cd(r):	15.882987	15.629843	0.25314408	0
    Cl:	0.34919101	0.34368978	0.0055012285	0
    Cl(f):	0.17584093	0.17184489	0.003996042	0
    Cl(r):	0.17335008	0.17184489	0.0015051865	0
    CmPitch:	0.0012454277	-4.6582322e-11	0.0012454278	0
    CmRoll:	-14.925856	-14.690711	-0.23514507	0
    CmYaw:	81.823473	80.284769	1.5387033	0
    Cs:	-6.3761162e-22	-2.967819e-20	2.9040579e-20	0
    Cs(f):	81.823473	80.284769	1.5387033	0
    Cs(r):	-81.823473	-80.284769	-1.5387033	0

    writing force and moment coefficient files.

Courant Number mean: 0.088214955 max: 0.90022234
deltaT = 1.7986616e-06
Time = 0.00202692

PIMPLE: iteration 1
diagonal:  Solving for rho, Initial residual = 0, Final residual = 0, No Iterations 0
DILUPBiCGStab:  Solving for Ux, Initial residual = 0.00094391297, Final residual = 5.1608879e-07, No Iterations 2
DILUPBiCGStab:  Solving for Uy, Initial residual = 0.0016240763, Final residual = 5.5506894e-07, No Iterations 2
DILUPBiCGStab:  Solving for e, Initial residual = 0.0091207316, Final residual = 5.4649828e-07, No Iterations 4
limitTemperature=limitT, Type=Lower, LimitedCells=0, CellsPercent=0, Tmin=101, UnlimitedTmin=291.07515
limitTemperature=limitT, Type=Upper, LimitedCells=0, CellsPercent=0, Tmax=1000, UnlimitedTmax=294.17611
GAMG:  Solving for p, Initial residual = 0.012351527, Final residual = 8.8588049e-05, No Iterations 3
GAMG:  Solving for p, Initial residual = 0.00010100656, Final residual = 8.0540178e-07, No Iterations 25
diagonal:  Solving for rho, Initial residual = 0, Final residual = 0, No Iterations 0
time step continuity errors : sum local = 2.668408e-09, global = 1.3898072e-09, cumulative = 4.1436815e-07
GAMG:  Solving for p, Initial residual = 0.00027463231, Final residual = 2.2395875e-06, No Iterations 12
GAMG:  Solving for p, Initial residual = 7.1912589e-06, Final residual = 7.9094786e-07, No Iterations 6
diagonal:  Solving for rho, Initial residual = 0, Final residual = 0, No Iterations 0
time step continuity errors : sum local = 2.6211455e-09, global = 7.925737e-10, cumulative = 4.1516072e-07
DILUPBiCGStab:  Solving for omega, Initial residual = 2.2876174e-06, Final residual = 2.8361243e-08, No Iterations 1
DILUPBiCGStab:  Solving for k, Initial residual = 8.4461601e-05, Final residual = 3.3046352e-07, No Iterations 2
ExecutionTime = 10.64 s  ClockTime = 10 s

forceCoeffs forces write:
    Coefficient	Total	Pressure	Viscous	Internal
    Cd:	1.9179421	1.8819663	0.035975736	0
    Cd(f):	-14.172358	-13.954333	-0.21802449	0
    Cd(r):	16.0903	15.8363	0.25400023	0
    Cl:	0.35399806	0.34847654	0.0055215189	0
    Cl(f):	0.17825463	0.17423827	0.0040163539	0
    Cl(r):	0.17574344	0.17423827	0.001505165	0
    CmPitch:	0.0012555944	2.7340442e-11	0.0012555944	0
    CmRoll:	-15.131329	-14.895316	-0.23601236	0
    CmYaw:	81.980709	80.442958	1.5377505	0
    Cs:	9.354271e-21	-2.9637374e-20	3.8991645e-20	0
    Cs(f):	81.980709	80.442958	1.5377505	0
    Cs(r):	-81.980709	-80.442958	-1.5377505	0

    writing force and moment coefficient files.

Courant Number mean: 0.088205882 max: 0.899999
deltaT = 1.7986616e-06
Time = 0.00202872

PIMPLE: iteration 1
diagonal:  Solving for rho, Initial residual = 0, Final residual = 0, No Iterations 0
DILUPBiCGStab:  Solving for Ux, Initial residual = 0.00094380964, Final residual = 5.1875583e-07, No Iterations 2
DILUPBiCGStab:  Solving for Uy, Initial residual = 0.0016285305, Final residual = 5.5727996e-07, No Iterations 2
DILUPBiCGStab:  Solving for e, Initial residual = 0.0090756073, Final residual = 5.5679937e-07, No Iterations 4
limitTemperature=limitT, Type=Lower, LimitedCells=0, CellsPercent=0, Tmin=101, UnlimitedTmin=291.23603
limitTemperature=limitT, Type=Upper, LimitedCells=0, CellsPercent=0, Tmax=1000, UnlimitedTmax=294.18002
GAMG:  Solving for p, Initial residual = 0.012333712, Final residual = 0.00012021649, No Iterations 2
GAMG:  Solving for p, Initial residual = 0.00013027875, Final residual = 1.248413e-06, No Iterations 24
diagonal:  Solving for rho, Initial residual = 0, Final residual = 0, No Iterations 0
time step continuity errors : sum local = 4.1362302e-09, global = 2.2693489e-09, cumulative = 4.1743007e-07
GAMG:  Solving for p, Initial residual = 0.00028216874, Final residual = 2.2773175e-06, No Iterations 10
GAMG:  Solving for p, Initial residual = 7.0347093e-06, Final residual = 9.1576108e-07, No Iterations 6
diagonal:  Solving for rho, Initial residual = 0, Final residual = 0, No Iterations 0
time step continuity errors : sum local = 3.0335537e-09, global = 1.4419084e-09, cumulative = 4.1887198e-07
DILUPBiCGStab:  Solving for omega, Initial residual = 2.2658268e-06, Final residual = 2.8583799e-08, No Iterations 1
DILUPBiCGStab:  Solving for k, Initial residual = 8.4461277e-05, Final residual = 3.2631075e-07, No Iterations 2
ExecutionTime = 11.17 s  ClockTime = 11 s

forceCoeffs forces write:
    Coefficient	Total	Pressure	Viscous	Internal
    Cd:	1.9181643	1.8822118	0.035952509	0
    Cd(f):	-14.283677	-14.064925	-0.21875228	0
    Cd(r):	16.201842	15.947137	0.25470479	0
    Cl:	0.35660499	0.35106671	0.0055382739	0
    Cl(f):	0.17957484	0.17553336	0.0040414819	0
    Cl(r):	0.17703015	0.17553336	0.001496792	0
    CmPitch:	0.001272345	6.3935103e-11	0.001272345	0
    CmRoll:	-15.242759	-15.006031	-0.23672854	0
    CmYaw:	81.990207	80.453449	1.5367576	0
    Cs:	-3.0205763e-21	-2.9570387e-20	2.6549811e-20	0
    Cs(f):	81.990207	80.453449	1.5367576	0
    Cs(r):	-81.990207	-80.453449	-1.5367576	0

    writing force and moment coefficient files.

Courant Number mean: 0.088196899 max: 0.89977993
deltaT = 1.7986616e-06
Time = 0.00203052

PIMPLE: iteration 1
diagonal:  Solving for rho, Initial residual = 0, Final residual = 0, No Iterations 0
DILUPBiCGStab:  Solving for Ux, Initial residual = 0.00094308852, Final residual = 5.2513657e-07, No Iterations 2
DILUPBiCGStab:  Solving for Uy, Initial residual = 0.0016329866, Final residual = 5.5072663e-07, No Iterations 2
DILUPBiCGStab:  Solving for e, Initial residual = 0.0090315895, Final residual = 5.455964e-07, No Iterations 4
limitTemperature=limitT, Type=Lower, LimitedCells=0, CellsPercent=0, Tmin=101, UnlimitedTmin=291.15962
limitTemperature=limitT, Type=Upper, LimitedCells=0, CellsPercent=0, Tmax=1000, UnlimitedTmax=294.18398
GAMG:  Solving for p, Initial residual = 0.012316997, Final residual = 9.2610129e-05, No Iterations 3
GAMG:  Solving for p, Initial residual = 0.00010526965, Final residual = 7.8816293e-07, No Iterations 25
diagonal:  Solving for rho, Initial residual = 0, Final residual = 0, No Iterations 0
time step continuity errors : sum local = 2.6095893e-09, global = 1.3181333e-09, cumulative = 4.2019011e-07
GAMG:  Solving for p, Initial residual = 0.00027064366, Final residual = 2.2307861e-06, No Iterations 12
GAMG:  Solving for p, Initial residual = 6.9200253e-06, Final residual = 9.5831362e-07, No Iterations 6
diagonal:  Solving for rho, Initial residual = 0, Final residual = 0, No Iterations 0
time step continuity errors : sum local = 3.1732638e-09, global = 1.0797282e-09, cumulative = 4.2126984e-07
DILUPBiCGStab:  Solving for omega, Initial residual = 2.1990486e-06, Final residual = 2.8285544e-08, No Iterations 1
DILUPBiCGStab:  Solving for k, Initial residual = 8.4478437e-05, Final residual = 3.2938137e-07, No Iterations 2
ExecutionTime = 11.75 s  ClockTime = 12 s

forceCoeffs forces write:
    Coefficient	Total	Pressure	Viscous	Internal
    Cd:	1.9179993	1.8820631	0.035936165	0
    Cd(f):	-14.195031	-13.976279	-0.21875149	0
    Cd(r):	16.11303	15.858342	0.25468765	0
    Cl:	0.35452917	0.34899111	0.0055380642	0
    Cl(f):	0.17853872	0.17449555	0.0040431627	0
    Cl(r):	0.17599045	0.17449555	0.0014949014	0
    CmPitch:	0.0012741306	-1.767819e-11	0.0012741306	0
    CmRoll:	-15.15403	-14.917311	-0.23671957	0
    CmYaw:	81.983153	80.447094	1.5360591	0
    Cs:	-4.9181674e-22	-2.9629966e-20	2.913815e-20	0
    Cs(f):	81.983153	80.447094	1.5360591	0
    Cs(r):	-81.983153	-80.447094	-1.5360591	0

    writing force and moment coefficient files.

Courant Number mean: 0.088187936 max: 0.8995653
deltaT = 1.7986616e-06
Time = 0.00203232

PIMPLE: iteration 1
diagonal:  Solving for rho, Initial residual = 0, Final residual = 0, No Iterations 0
DILUPBiCGStab:  Solving for Ux, Initial residual = 0.000942268, Final residual = 5.0077983e-07, No Iterations 2
DILUPBiCGStab:  Solving for Uy, Initial residual = 0.0016359012, Final residual = 5.5214617e-07, No Iterations 2
DILUPBiCGStab:  Solving for e, Initial residual = 0.0090017882, Final residual = 5.6442152e-07, No Iterations 4
limitTemperature=limitT, Type=Lower, LimitedCells=0, CellsPercent=0, Tmin=101, UnlimitedTmin=291.14634
limitTemperature=limitT, Type=Upper, LimitedCells=0, CellsPercent=0, Tmax=1000, UnlimitedTmax=294.18772
GAMG:  Solving for p, Initial residual = 0.012302937, Final residual = 8.3861165e-05, No Iterations 3
GAMG:  Solving for p, Initial residual = 9.6082849e-05, Final residual = 7.9737558e-07, No Iterations 23
diagonal:  Solving for rho, Initial residual = 0, Final residual = 0, No Iterations 0
time step continuity errors : sum local = 2.6387831e-09, global = 1.2941803e-09, cumulative = 4.2256402e-07
GAMG:  Solving for p, Initial residual = 0.00026176128, Final residual = 2.2263016e-06, No Iterations 12
GAMG:  Solving for p, Initial residual = 6.9209328e-06, Final residual = 8.0427852e-07, No Iterations 6
diagonal:  Solving for rho, Initial residual = 0, Final residual = 0, No Iterations 0
time step continuity errors : sum local = 2.6622369e-09, global = 8.8325536e-10, cumulative = 4.2344728e-07
DILUPBiCGStab:  Solving for omega, Initial residual = 2.2181191e-06, Final residual = 2.8998768e-08, No Iterations 1
DILUPBiCGStab:  Solving for k, Initial residual = 8.4525093e-05, Final residual = 3.2918859e-07, No Iterations 2
ExecutionTime = 12.35 s  ClockTime = 12 s

forceCoeffs forces write:
    Coefficient	Total	Pressure	Viscous	Internal
    Cd:	1.9144141	1.8785155	0.035898602	0
    Cd(f):	-14.103183	-13.883945	-0.21923789	0
    Cd(r):	16.017597	15.762461	0.25513649	0
    Cl:	0.35233845	0.34678945	0.0055490042	0
    Cl(f):	0.17744325	0.17339472	0.0040485309	0
    Cl(r):	0.1748952	0.17339472	0.0015004733	0
    CmPitch:	0.0012740287	-4.9561412e-11	0.0012740288	0
    CmRoll:	-15.06039	-14.823203	-0.23718719	0
    CmYaw:	81.82991	80.295457	1.5344534	0
    Cs:	-2.3186818e-21	-2.9687222e-20	2.736854e-20	0
    Cs(f):	81.82991	80.295457	1.5344534	0
    Cs(r):	-81.82991	-80.295457	-1.5344534	0

    writing force and moment coefficient files.

Courant Number mean: 0.088178896 max: 0.89935469
deltaT = 1.7986616e-06
Time = 0.00203412

PIMPLE: iteration 1
diagonal:  Solving for rho, Initial residual = 0, Final residual = 0, No Iterations 0
DILUPBiCGStab:  Solving for Ux, Initial residual = 0.00094099544, Final residual = 5.1555403e-07, No Iterations 2
DILUPBiCGStab:  Solving for Uy, Initial residual = 0.0016375097, Final residual = 5.6042138e-07, No Iterations 2
DILUPBiCGStab:  Solving for e, Initial residual = 0.0089788679, Final residual = 5.3791783e-07, No Iterations 4
limitTemperature=limitT, Type=Lower, LimitedCells=0, CellsPercent=0, Tmin=101, UnlimitedTmin=291.17401
limitTemperature=limitT, Type=Upper, LimitedCells=0, CellsPercent=0, Tmax=1000, UnlimitedTmax=294.19155
GAMG:  Solving for p, Initial residual = 0.012315029, Final residual = 8.985226e-05, No Iterations 3
GAMG:  Solving for p, Initial residual = 0.00010211338, Final residual = 8.4110873e-07, No Iterations 25
diagonal:  Solving for rho, Initial residual = 0, Final residual = 0, No Iterations 0
time step continuity errors : sum local = 2.7823823e-09, global = 1.4449009e-09, cumulative = 4.2489218e-07
GAMG:  Solving for p, Initial residual = 0.00026197628, Final residual = 2.324704e-06, No Iterations 12
GAMG:  Solving for p, Initial residual = 7.2118712e-06, Final residual = 8.6379528e-07, No Iterations 6
diagonal:  Solving for rho, Initial residual = 0, Final residual = 0, No Iterations 0
time step continuity errors : sum local = 2.8579343e-09, global = 9.6236594e-10, cumulative = 4.2585455e-07
DILUPBiCGStab:  Solving for omega, Initial residual = 2.2988644e-06, Final residual = 2.8827762e-08, No Iterations 1
DILUPBiCGStab:  Solving for k, Initial residual = 8.4584668e-05, Final residual = 3.3064425e-07, No Iterations 2
ExecutionTime = 12.92 s  ClockTime = 13 s

forceCoeffs forces write:
    Coefficient	Total	Pressure	Viscous	Internal
    Cd:	1.9155851	1.8797061	0.035878968	0
    Cd(f):	-14.182291	-13.962879	-0.21941163	0
    Cd(r):	16.097876	15.842585	0.2552906	0
    Cl:	0.35420288	0.34865004	0.0055528391	0
    Cl(f):	0.1783691	0.17432502	0.0040440822	0
    Cl(r):	0.17583378	0.17432502	0.0015087569	0
    CmPitch:	0.0012676627	3.0765049e-11	0.0012676627	0
    CmRoll:	-15.140084	-14.902732	-0.23735111	0
    CmYaw:	81.879961	80.346347	1.5336142	0
    Cs:	9.0645296e-21	-2.9643508e-20	3.8708038e-20	0
    Cs(f):	81.879961	80.346347	1.5336142	0
    Cs(r):	-81.879961	-80.346347	-1.5336142	0

    writing force and moment coefficient files.

Courant Number mean: 0.088169952 max: 0.89914876
deltaT = 1.8020173e-06
Time = 0.00203592

PIMPLE: iteration 1
diagonal:  Solving for rho, Initial residual = 0, Final residual = 0, No Iterations 0
DILUPBiCGStab:  Solving for Ux, Initial residual = 0.00094128493, Final residual = 5.1961833e-07, No Iterations 2
DILUPBiCGStab:  Solving for Uy, Initial residual = 0.0016425375, Final residual = 5.7037549e-07, No Iterations 2
DILUPBiCGStab:  Solving for e, Initial residual = 0.0089869554, Final residual = 5.5772101e-07, No Iterations 4
limitTemperature=limitT, Type=Lower, LimitedCells=0, CellsPercent=0, Tmin=101, UnlimitedTmin=291.26308
limitTemperature=limitT, Type=Upper, LimitedCells=0, CellsPercent=0, Tmax=1000, UnlimitedTmax=294.19522
GAMG:  Solving for p, Initial residual = 0.012367142, Final residual = 0.00012245747, No Iterations 2
GAMG:  Solving for p, Initial residual = 0.00013238299, Final residual = 1.0118842e-06, No Iterations 26
diagonal:  Solving for rho, Initial residual = 0, Final residual = 0, No Iterations 0
time step continuity errors : sum local = 3.3464831e-09, global = 1.8437781e-09, cumulative = 4.2769832e-07
GAMG:  Solving for p, Initial residual = 0.00027446458, Final residual = 2.0414354e-06, No Iterations 12
GAMG:  Solving for p, Initial residual = 6.8440044e-06, Final residual = 9.1990772e-07, No Iterations 4
diagonal:  Solving for rho, Initial residual = 0, Final residual = 0, No Iterations 0
time step continuity errors : sum local = 3.0418644e-09, global = 7.987947e-10, cumulative = 4.2849712e-07
DILUPBiCGStab:  Solving for omega, Initial residual = 2.3278196e-06, Final residual = 2.8859976e-08, No Iterations 1
DILUPBiCGStab:  Solving for k, Initial residual = 8.4751957e-05, Final residual = 3.2859357e-07, No Iterations 2
ExecutionTime = 13.53 s  ClockTime = 13 s

forceCoeffs forces write:
    Coefficient	Total	Pressure	Viscous	Internal
    Cd:	1.9186704	1.8828082	0.035862194	0
    Cd(f):	-14.413017	-14.192453	-0.2205645	0
    Cd(r):	16.331688	16.075261	0.2564267	0
    Cl:	0.35963682	0.3540572	0.0055796144	0
    Cl(f):	0.18109417	0.1770286	0.0040655696	0
    Cl(r):	0.17854265	0.1770286	0.0015140449	0
    CmPitch:	0.0012757624	6.46029e-11	0.0012757623	0
    CmRoll:	-15.372352	-15.133857	-0.2384956	0
    CmYaw:	82.011842	80.478945	1.5328972	0
    Cs:	-4.6838206e-21	-2.9576097e-20	2.4892277e-20	0
    Cs(f):	82.011842	80.478945	1.5328972	0
    Cs(r):	-82.011842	-80.478945	-1.5328972	0

    writing force and moment coefficient files.

Courant Number mean: 0.088325567 max: 0.90062382
deltaT = 1.8020173e-06
Time = 0.00203772

PIMPLE: iteration 1
diagonal:  Solving for rho, Initial residual = 0, Final residual = 0, No Iterations 0
DILUPBiCGStab:  Solving for Ux, Initial residual = 0.00093931928, Final residual = 5.2688713e-07, No Iterations 2
DILUPBiCGStab:  Solving for Uy, Initial residual = 0.001643852, Final residual = 5.6561163e-07, No Iterations 2
DILUPBiCGStab:  Solving for e, Initial residual = 0.0089811718, Final residual = 5.4260343e-07, No Iterations 4
limitTemperature=limitT, Type=Lower, LimitedCells=0, CellsPercent=0, Tmin=101, UnlimitedTmin=291.22245
limitTemperature=limitT, Type=Upper, LimitedCells=0, CellsPercent=0, Tmax=1000, UnlimitedTmax=294.19891
GAMG:  Solving for p, Initial residual = 0.012387148, Final residual = 9.490309e-05, No Iterations 3
GAMG:  Solving for p, Initial residual = 0.00010746191, Final residual = 8.5180135e-07, No Iterations 25
diagonal:  Solving for rho, Initial residual = 0, Final residual = 0, No Iterations 0
time step continuity errors : sum local = 2.8149546e-09, global = 1.4379053e-09, cumulative = 4.2993502e-07
GAMG:  Solving for p, Initial residual = 0.00026273629, Final residual = 1.9157507e-06, No Iterations 14
GAMG:  Solving for p, Initial residual = 6.6235075e-06, Final residual = 9.4381072e-07, No Iterations 4
diagonal:  Solving for rho, Initial residual = 0, Final residual = 0, No Iterations 0
time step continuity errors : sum local = 3.119172e-09, global = -5.7756118e-11, cumulative = 4.2987727e-07
DILUPBiCGStab:  Solving for omega, Initial residual = 2.2176293e-06, Final residual = 2.8138795e-08, No Iterations 1
DILUPBiCGStab:  Solving for k, Initial residual = 8.4774281e-05, Final residual = 3.3243384e-07, No Iterations 2
ExecutionTime = 14.15 s  ClockTime = 14 s

forceCoeffs forces write:
    Coefficient	Total	Pressure	Viscous	Internal
    Cd:	1.918748	1.8829033	0.035844705	0
    Cd(f):	-14.248089	-14.027584	-0.22050497	0
    Cd(r):	16.166837	15.910487	0.25634968	0
    Cl:	0.35577922	0.35020121	0.0055780171	0
    Cl(f):	0.17917194	0.1751006	0.0040713386	0
    Cl(r):	0.17660728	0.1751006	0.0015066786	0
    CmPitch:	0.00128233	-2.1294307e-11	0.00128233	0
    CmRoll:	-15.207463	-14.969036	-0.23842732	0
    CmYaw:	82.015158	80.483008	1.5321497	0
    Cs:	-2.7921297e-21	-2.9641078e-20	2.6848948e-20	0
    Cs(f):	82.015158	80.483008	1.5321497	0
    Cs(r):	-82.015158	-80.483008	-1.5321497	0

    writing force and moment coefficient files.

Courant Number mean: 0.088316708 max: 0.90042555
deltaT = 1.8020173e-06
Time = 0.00203952

PIMPLE: iteration 1
diagonal:  Solving for rho, Initial residual = 0, Final residual = 0, No Iterations 0
DILUPBiCGStab:  Solving for Ux, Initial residual = 0.00093729543, Final residual = 5.0082179e-07, No Iterations 2
DILUPBiCGStab:  Solving for Uy, Initial residual = 0.0016447068, Final residual = 5.6771292e-07, No Iterations 2
DILUPBiCGStab:  Solving for e, Initial residual = 0.0089847675, Final residual = 5.6895447e-07, No Iterations 4
limitTemperature=limitT, Type=Lower, LimitedCells=0, CellsPercent=0, Tmin=101, UnlimitedTmin=291.18686
limitTemperature=limitT, Type=Upper, LimitedCells=0, CellsPercent=0, Tmax=1000, UnlimitedTmax=294.2024
GAMG:  Solving for p, Initial residual = 0.012426873, Final residual = 0.00012121553, No Iterations 2
GAMG:  Solving for p, Initial residual = 0.0001309455, Final residual = 1.1575753e-06, No Iterations 24
diagonal:  Solving for rho, Initial residual = 0, Final residual = 0, No Iterations 0
time step continuity errors : sum local = 3.8239399e-09, global = 1.9644641e-09, cumulative = 4.3184173e-07
GAMG:  Solving for p, Initial residual = 0.00026920757, Final residual = 1.9921062e-06, No Iterations 14
GAMG:  Solving for p, Initial residual = 6.7421692e-06, Final residual = 8.230846e-07, No Iterations 4
diagonal:  Solving for rho, Initial residual = 0, Final residual = 0, No Iterations 0
time step continuity errors : sum local = 2.7187412e-09, global = 4.9200781e-10, cumulative = 4.3233374e-07
DILUPBiCGStab:  Solving for omega, Initial residual = 2.2023585e-06, Final residual = 2.8710443e-08, No Iterations 1
DILUPBiCGStab:  Solving for k, Initial residual = 8.4824141e-05, Final residual = 3.3229323e-07, No Iterations 2
ExecutionTime = 14.73 s  ClockTime = 15 s

forceCoeffs forces write:
    Coefficient	Total	Pressure	Viscous	Internal
    Cd:	1.9139141	1.8781062	0.035807873	0
    Cd(f):	-14.147336	-13.926788	-0.22054785	0
    Cd(r):	16.06125	15.804895	0.25635572	0
    Cl:	0.35336556	0.34778697	0.0055785893	0
    Cl(f):	0.17796722	0.17389349	0.0040737345	0
    Cl(r):	0.17539834	0.17389349	0.0015048548	0
    CmPitch:	0.0012844398	-4.7357098e-11	0.0012844398	0
    CmRoll:	-15.104293	-14.865841	-0.23845178	0
    CmYaw:	81.808535	80.27796	1.5305753	0
    Cs:	-3.6112573e-21	-2.9688292e-20	2.6077035e-20	0
    Cs(f):	81.808535	80.27796	1.5305753	0
    Cs(r):	-81.808535	-80.27796	-1.5305753	0

    writing force and moment coefficient files.

Courant Number mean: 0.088307793 max: 0.90023107
deltaT = 1.8020173e-06
Time = 0.00204133

PIMPLE: iteration 1
diagonal:  Solving for rho, Initial residual = 0, Final residual = 0, No Iterations 0
DILUPBiCGStab:  Solving for Ux, Initial residual = 0.00093495786, Final residual = 5.145534e-07, No Iterations 2
DILUPBiCGStab:  Solving for Uy, Initial residual = 0.0016448563, Final residual = 5.7603599e-07, No Iterations 2
DILUPBiCGStab:  Solving for e, Initial residual = 0.0089942977, Final residual = 5.3775561e-07, No Iterations 4
limitTemperature=limitT, Type=Lower, LimitedCells=0, CellsPercent=0, Tmin=101, UnlimitedTmin=291.19391
limitTemperature=limitT, Type=Upper, LimitedCells=0, CellsPercent=0, Tmax=1000, UnlimitedTmax=294.20584
GAMG:  Solving for p, Initial residual = 0.012470105, Final residual = 8.3439759e-05, No Iterations 3
GAMG:  Solving for p, Initial residual = 9.572624e-05, Final residual = 7.5758164e-07, No Iterations 25
diagonal:  Solving for rho, Initial residual = 0, Final residual = 0, No Iterations 0
time step continuity errors : sum local = 2.5003922e-09, global = 1.308347e-09, cumulative = 4.3364209e-07
GAMG:  Solving for p, Initial residual = 0.00026930222, Final residual = 2.0397583e-06, No Iterations 12
GAMG:  Solving for p, Initial residual = 6.9527769e-06, Final residual = 9.2697865e-07, No Iterations 4
diagonal:  Solving for rho, Initial residual = 0, Final residual = 0, No Iterations 0
time step continuity errors : sum local = 3.0599143e-09, global = 2.2263014e-10, cumulative = 4.3386472e-07
DILUPBiCGStab:  Solving for omega, Initial residual = 2.2459437e-06, Final residual = 2.8494532e-08, No Iterations 1
DILUPBiCGStab:  Solving for k, Initial residual = 8.4886753e-05, Final residual = 3.3336435e-07, No Iterations 2
ExecutionTime = 15.29 s  ClockTime = 15 s

forceCoeffs forces write:
    Coefficient	Total	Pressure	Viscous	Internal
    Cd:	1.9160076	1.8802585	0.035749029	0
    Cd(f):	-14.242318	-14.021384	-0.22093362	0
    Cd(r):	16.158326	15.901643	0.25668265	0
    Cl:	0.35561216	0.35002523	0.0055869261	0
    Cl(f):	0.17907377	0.17501262	0.0040611523	0
    Cl(r):	0.17653839	0.17501262	0.0015257738	0
    CmPitch:	0.0012676892	2.7790804e-11	0.0012676892	0
    CmRoll:	-15.200322	-14.961514	-0.23880813	0
    CmYaw:	81.89802	80.36996	1.5280601	0
    Cs:	8.8070998e-21	-2.9648569e-20	3.8455669e-20	0
    Cs(f):	81.89802	80.36996	1.5280601	0
    Cs(r):	-81.89802	-80.36996	-1.5280601	0

    writing force and moment coefficient files.

Courant Number mean: 0.088299045 max: 0.90004162
deltaT = 1.8020173e-06
Time = 0.00204313

PIMPLE: iteration 1
diagonal:  Solving for rho, Initial residual = 0, Final residual = 0, No Iterations 0
DILUPBiCGStab:  Solving for Ux, Initial residual = 0.00093252993, Final residual = 5.1280593e-07, No Iterations 2
DILUPBiCGStab:  Solving for Uy, Initial residual = 0.001646236, Final residual = 5.8347929e-07, No Iterations 2
DILUPBiCGStab:  Solving for e, Initial residual = 0.0090097599, Final residual = 5.6256012e-07, No Iterations 4
limitTemperature=limitT, Type=Lower, LimitedCells=0, CellsPercent=0, Tmin=101, UnlimitedTmin=291.27005
limitTemperature=limitT, Type=Upper, LimitedCells=0, CellsPercent=0, Tmax=1000, UnlimitedTmax=294.20916
GAMG:  Solving for p, Initial residual = 0.012528593, Final residual = 0.00011570819, No Iterations 2
GAMG:  Solving for p, Initial residual = 0.00012572563, Final residual = 1.1072441e-06, No Iterations 24
diagonal:  Solving for rho, Initial residual = 0, Final residual = 0, No Iterations 0
time step continuity errors : sum local = 3.6525285e-09, global = 1.9562094e-09, cumulative = 4.3582093e-07
GAMG:  Solving for p, Initial residual = 0.00028498513, Final residual = 2.4227863e-06, No Iterations 10
GAMG:  Solving for p, Initial residual = 7.1650395e-06, Final residual = 9.3012282e-07, No Iterations 6
diagonal:  Solving for rho, Initial residual = 0, Final residual = 0, No Iterations 0
time step continuity errors : sum local = 3.0678984e-09, global = 1.4432856e-09, cumulative = 4.3726421e-07
DILUPBiCGStab:  Solving for omega, Initial residual = 2.3047458e-06, Final residual = 2.8857141e-08, No Iterations 1
DILUPBiCGStab:  Solving for k, Initial residual = 8.4889537e-05, Final residual = 3.2953702e-07, No Iterations 2
ExecutionTime = 15.85 s  ClockTime = 16 s

forceCoeffs forces write:
    Coefficient	Total	Pressure	Viscous	Internal
    Cd:	1.9192946	1.8835631	0.035731537	0
    Cd(f):	-14.431881	-14.209643	-0.22223793	0
    Cd(r):	16.351175	16.093206	0.25796947	0
    Cl:	0.36008543	0.35446819	0.0056172359	0
    Cl(f):	0.18132547	0.1772341	0.0040913765	0
    Cl(r):	0.17875996	0.1772341	0.0015258594	0
    CmPitch:	0.0012827586	6.4552833e-11	0.0012827586	0
    CmRoll:	-15.391528	-15.151424	-0.2401037	0
    CmYaw:	82.038522	80.511209	1.5273124	0
    Cs:	-5.5140374e-21	-2.9583295e-20	2.4069258e-20	0
    Cs(f):	82.038522	80.511209	1.5273124	0
    Cs(r):	-82.038522	-80.511209	-1.5273124	0

    writing force and moment coefficient files.

Courant Number mean: 0.088290396 max: 0.89985748
deltaT = 1.8020173e-06
Time = 0.00204493

PIMPLE: iteration 1
diagonal:  Solving for rho, Initial residual = 0, Final residual = 0, No Iterations 0
DILUPBiCGStab:  Solving for Ux, Initial residual = 0.00092950736, Final residual = 5.2149884e-07, No Iterations 2
DILUPBiCGStab:  Solving for Uy, Initial residual = 0.0016466028, Final residual = 5.738161e-07, No Iterations 2
DILUPBiCGStab:  Solving for e, Initial residual = 0.0090218245, Final residual = 5.4006209e-07, No Iterations 4
limitTemperature=limitT, Type=Lower, LimitedCells=0, CellsPercent=0, Tmin=101, UnlimitedTmin=291.24113
limitTemperature=limitT, Type=Upper, LimitedCells=0, CellsPercent=0, Tmax=1000, UnlimitedTmax=294.2124
GAMG:  Solving for p, Initial residual = 0.012556622, Final residual = 8.8969283e-05, No Iterations 3
GAMG:  Solving for p, Initial residual = 0.00010162024, Final residual = 9.7875443e-07, No Iterations 23
diagonal:  Solving for rho, Initial residual = 0, Final residual = 0, No Iterations 0
time step continuity errors : sum local = 3.2256177e-09, global = 1.6081971e-09, cumulative = 4.3887241e-07
GAMG:  Solving for p, Initial residual = 0.00026740128, Final residual = 2.2033733e-06, No Iterations 12
GAMG:  Solving for p, Initial residual = 6.9638179e-06, Final residual = 8.9114489e-07, No Iterations 6
diagonal:  Solving for rho, Initial residual = 0, Final residual = 0, No Iterations 0
time step continuity errors : sum local = 2.9370507e-09, global = 1.107241e-09, cumulative = 4.3997965e-07
DILUPBiCGStab:  Solving for omega, Initial residual = 2.2002398e-06, Final residual = 2.8316245e-08, No Iterations 1
DILUPBiCGStab:  Solving for k, Initial residual = 8.4905844e-05, Final residual = 3.3347929e-07, No Iterations 2
ExecutionTime = 16.42 s  ClockTime = 16 s

forceCoeffs forces write:
    Coefficient	Total	Pressure	Viscous	Internal
    Cd:	1.9195759	1.8838484	0.0357275	0
    Cd(f):	-14.223352	-14.001748	-0.22160454	0
    Cd(r):	16.142928	15.885596	0.25733204	0
    Cl:	0.35521019	0.34960782	0.0056023705	0
    Cl(f):	0.17889519	0.17480391	0.0040912834	0
    Cl(r):	0.176315	0.17480391	0.0015110871	0
    CmPitch:	0.0012900982	-2.0146914e-11	0.0012900982	0
    CmRoll:	-15.18314	-14.943672	-0.23946829	0
    CmYaw:	82.050544	80.523404	1.5271398	0
    Cs:	-5.7334239e-21	-2.9643166e-20	2.3909742e-20	0
    Cs(f):	82.050544	80.523404	1.5271398	0
    Cs(r):	-82.050544	-80.523404	-1.5271398	0

    writing force and moment coefficient files.

Courant Number mean: 0.088281827 max: 0.89967902
deltaT = 1.8020173e-06
Time = 0.00204673

PIMPLE: iteration 1
diagonal:  Solving for rho, Initial residual = 0, Final residual = 0, No Iterations 0
DILUPBiCGStab:  Solving for Ux, Initial residual = 0.00092666786, Final residual = 4.9359422e-07, No Iterations 2
DILUPBiCGStab:  Solving for Uy, Initial residual = 0.0016469531, Final residual = 5.777617e-07, No Iterations 2
DILUPBiCGStab:  Solving for e, Initial residual = 0.0090361904, Final residual = 5.6643756e-07, No Iterations 4
limitTemperature=limitT, Type=Lower, LimitedCells=0, CellsPercent=0, Tmin=101, UnlimitedTmin=291.19339
limitTemperature=limitT, Type=Upper, LimitedCells=0, CellsPercent=0, Tmax=1000, UnlimitedTmax=294.21554
GAMG:  Solving for p, Initial residual = 0.012596704, Final residual = 0.00011897161, No Iterations 2
GAMG:  Solving for p, Initial residual = 0.00012861605, Final residual = 1.188627e-06, No Iterations 24
diagonal:  Solving for rho, Initial residual = 0, Final residual = 0, No Iterations 0
time step continuity errors : sum local = 3.9150959e-09, global = 2.0544549e-09, cumulative = 4.420341e-07
GAMG:  Solving for p, Initial residual = 0.00026415364, Final residual = 2.1859781e-06, No Iterations 12
GAMG:  Solving for p, Initial residual = 6.8924653e-06, Final residual = 9.4782282e-07, No Iterations 4
diagonal:  Solving for rho, Initial residual = 0, Final residual = 0, No Iterations 0
time step continuity errors : sum local = 3.1215574e-09, global = 5.7375311e-10, cumulative = 4.4260786e-07
DILUPBiCGStab:  Solving for omega, Initial residual = 2.2305256e-06, Final residual = 2.8985083e-08, No Iterations 1
DILUPBiCGStab:  Solving for k, Initial residual = 8.4956626e-05, Final residual = 3.3305728e-07, No Iterations 2
ExecutionTime = 16.95 s  ClockTime = 17 s

forceCoeffs forces write:
    Coefficient	Total	Pressure	Viscous	Internal
    Cd:	1.9156936	1.879995	0.035698608	0
    Cd(f):	-14.075052	-13.85318	-0.22187139	0
    Cd(r):	15.990745	15.733175	0.25757	0
    Cl:	0.35169528	0.346087	0.0056082756	0
    Cl(f):	0.17714144	0.1730435	0.0040979379	0
    Cl(r):	0.17455384	0.1730435	0.0015103377	0
    CmPitch:	0.0012938	-4.7122488e-11	0.0012938001	0
    CmRoll:	-15.032898	-14.793178	-0.2397207	0
    CmYaw:	81.884599	80.358694	1.5259049	0
    Cs:	-4.497394e-21	-2.969475e-20	2.5197356e-20	0
    Cs(f):	81.884599	80.358694	1.5259049	0
    Cs(r):	-81.884599	-80.358694	-1.5259049	0

    writing force and moment coefficient files.

Courant Number mean: 0.088273279 max: 0.8995057
deltaT = 1.8020173e-06
Time = 0.00204853

PIMPLE: iteration 1
diagonal:  Solving for rho, Initial residual = 0, Final residual = 0, No Iterations 0
DILUPBiCGStab:  Solving for Ux, Initial residual = 0.00092354512, Final residual = 5.0533181e-07, No Iterations 2
DILUPBiCGStab:  Solving for Uy, Initial residual = 0.0016466379, Final residual = 5.8563326e-07, No Iterations 2
DILUPBiCGStab:  Solving for e, Initial residual = 0.0090505297, Final residual = 5.3842482e-07, No Iterations 4
limitTemperature=limitT, Type=Lower, LimitedCells=0, CellsPercent=0, Tmin=101, UnlimitedTmin=291.20041
limitTemperature=limitT, Type=Upper, LimitedCells=0, CellsPercent=0, Tmax=1000, UnlimitedTmax=294.21864
GAMG:  Solving for p, Initial residual = 0.012645088, Final residual = 8.3263924e-05, No Iterations 3
GAMG:  Solving for p, Initial residual = 9.5415767e-05, Final residual = 7.7535189e-07, No Iterations 25
diagonal:  Solving for rho, Initial residual = 0, Final residual = 0, No Iterations 0
time step continuity errors : sum local = 2.5510682e-09, global = 1.3520576e-09, cumulative = 4.4395992e-07
GAMG:  Solving for p, Initial residual = 0.00026500531, Final residual = 2.2147639e-06, No Iterations 12
GAMG:  Solving for p, Initial residual = 7.158146e-06, Final residual = 7.7734158e-07, No Iterations 6
diagonal:  Solving for rho, Initial residual = 0, Final residual = 0, No Iterations 0
time step continuity errors : sum local = 2.5579405e-09, global = 8.0875305e-10, cumulative = 4.4476867e-07
DILUPBiCGStab:  Solving for omega, Initial residual = 2.2803187e-06, Final residual = 2.8385689e-08, No Iterations 1
DILUPBiCGStab:  Solving for k, Initial residual = 8.5009823e-05, Final residual = 3.3407102e-07, No Iterations 2
ExecutionTime = 17.53 s  ClockTime = 17 s

forceCoeffs forces write:
    Coefficient	Total	Pressure	Viscous	Internal
    Cd:	1.9183335	1.8826374	0.035696029	0
    Cd(f):	-14.164884	-13.942852	-0.22203233	0
    Cd(r):	16.083218	15.825489	0.25772836	0
    Cl:	0.3538278	0.34821579	0.0056120107	0
    Cl(f):	0.17820035	0.17410789	0.0040924556	0
    Cl(r):	0.17562745	0.17410789	0.0015195551	0
    CmPitch:	0.0012864503	2.8949847e-11	0.0012864503	0
    CmRoll:	-15.124051	-14.884171	-0.23988035	0
    CmYaw:	81.997439	80.471645	1.5257947	0
    Cs:	7.4138526e-21	-2.9654739e-20	3.7068592e-20	0
    Cs(f):	81.997439	80.471645	1.5257947	0
    Cs(r):	-81.997439	-80.471645	-1.5257947	0

    writing force and moment coefficient files.

Courant Number mean: 0.088264929 max: 0.89933817
deltaT = 1.8020173e-06
Time = 0.00205034

PIMPLE: iteration 1
diagonal:  Solving for rho, Initial residual = 0, Final residual = 0, No Iterations 0
DILUPBiCGStab:  Solving for Ux, Initial residual = 0.00092039771, Final residual = 5.0293331e-07, No Iterations 2
DILUPBiCGStab:  Solving for Uy, Initial residual = 0.0016466386, Final residual = 5.9578282e-07, No Iterations 2
DILUPBiCGStab:  Solving for e, Initial residual = 0.0090649756, Final residual = 5.6655404e-07, No Iterations 4
limitTemperature=limitT, Type=Lower, LimitedCells=0, CellsPercent=0, Tmin=101, UnlimitedTmin=291.2874
limitTemperature=limitT, Type=Upper, LimitedCells=0, CellsPercent=0, Tmax=1000, UnlimitedTmax=294.2217
GAMG:  Solving for p, Initial residual = 0.012698828, Final residual = 0.00011423039, No Iterations 2
GAMG:  Solving for p, Initial residual = 0.00012412141, Final residual = 1.1886826e-06, No Iterations 24
diagonal:  Solving for rho, Initial residual = 0, Final residual = 0, No Iterations 0
time step continuity errors : sum local = 3.9082857e-09, global = 2.1103143e-09, cumulative = 4.4687898e-07
GAMG:  Solving for p, Initial residual = 0.00028063803, Final residual = 2.4635856e-06, No Iterations 10
GAMG:  Solving for p, Initial residual = 7.2329562e-06, Final residual = 7.5187095e-07, No Iterations 8
diagonal:  Solving for rho, Initial residual = 0, Final residual = 0, No Iterations 0
time step continuity errors : sum local = 2.4718536e-09, global = 1.3494316e-09, cumulative = 4.4822841e-07
DILUPBiCGStab:  Solving for omega, Initial residual = 2.2653344e-06, Final residual = 2.8623552e-08, No Iterations 1
DILUPBiCGStab:  Solving for k, Initial residual = 8.5016387e-05, Final residual = 3.304354e-07, No Iterations 2
ExecutionTime = 18.09 s  ClockTime = 18 s

forceCoeffs forces write:
    Coefficient	Total	Pressure	Viscous	Internal
    Cd:	1.9220845	1.8864157	0.035668787	0
    Cd(f):	-14.383025	-14.159826	-0.22319897	0
    Cd(r):	16.30511	16.046242	0.25886776	0
    Cl:	0.35897509	0.3533361	0.0056389856	0
    Cl(f):	0.18078045	0.17666805	0.0041124	0
    Cl(r):	0.17819464	0.17666805	0.0015265856	0
    CmPitch:	0.0012929073	6.349131e-11	0.0012929072	0
    CmRoll:	-15.344067	-15.103034	-0.24103337	0
    CmYaw:	82.157771	80.633141	1.5246302	0
    Cs:	-5.4392769e-21	-2.9588853e-20	2.4149576e-20	0
    Cs(f):	82.157771	80.633141	1.5246302	0
    Cs(r):	-82.157771	-80.633141	-1.5246302	0

    writing force and moment coefficient files.

Courant Number mean: 0.088256888 max: 0.89917613
deltaT = 1.8020173e-06
Time = 0.00205214

PIMPLE: iteration 1
diagonal:  Solving for rho, Initial residual = 0, Final residual = 0, No Iterations 0
DILUPBiCGStab:  Solving for Ux, Initial residual = 0.00091679614, Final residual = 5.1120426e-07, No Iterations 2
DILUPBiCGStab:  Solving for Uy, Initial residual = 0.001645234, Final residual = 5.8471627e-07, No Iterations 2
DILUPBiCGStab:  Solving for e, Initial residual = 0.0090754563, Final residual = 5.393348e-07, No Iterations 4
limitTemperature=limitT, Type=Lower, LimitedCells=0, CellsPercent=0, Tmin=101, UnlimitedTmin=291.29369
limitTemperature=limitT, Type=Upper, LimitedCells=0, CellsPercent=0, Tmax=1000, UnlimitedTmax=294.22479
GAMG:  Solving for p, Initial residual = 0.012730195, Final residual = 8.8649251e-05, No Iterations 3
GAMG:  Solving for p, Initial residual = 0.00010129378, Final residual = 1.009135e-06, No Iterations 23
diagonal:  Solving for rho, Initial residual = 0, Final residual = 0, No Iterations 0
time step continuity errors : sum local = 3.3147644e-09, global = 1.653088e-09, cumulative = 4.498815e-07
GAMG:  Solving for p, Initial residual = 0.0002656178, Final residual = 2.5053676e-06, No Iterations 12
GAMG:  Solving for p, Initial residual = 7.1625201e-06, Final residual = 8.3559816e-07, No Iterations 8
diagonal:  Solving for rho, Initial residual = 0, Final residual = 0, No Iterations 0
time step continuity errors : sum local = 2.7447933e-09, global = 9.4267506e-10, cumulative = 4.5082418e-07
DILUPBiCGStab:  Solving for omega, Initial residual = 2.1732897e-06, Final residual = 2.7701341e-08, No Iterations 1
DILUPBiCGStab:  Solving for k, Initial residual = 8.5028392e-05, Final residual = 3.341289e-07, No Iterations 2
ExecutionTime = 18.67 s  ClockTime = 19 s

forceCoeffs forces write:
    Coefficient	Total	Pressure	Viscous	Internal
    Cd:	1.9226966	1.8870563	0.035640379	0
    Cd(f):	-14.179696	-13.956984	-0.22271175	0
    Cd(r):	16.102392	15.84404	0.25835213	0
    Cl:	0.35422535	0.34859809	0.0056272546	0
    Cl(f):	0.17840175	0.17429905	0.0041027005	0
    Cl(r):	0.1758236	0.17429905	0.0015245542	0
    CmPitch:	0.0012890731	-2.0882505e-11	0.0012890731	0
    CmRoll:	-15.141044	-14.900512	-0.24053194	0
    CmYaw:	82.183938	80.660522	1.5234159	0
    Cs:	-5.3546553e-21	-2.964688e-20	2.4292224e-20	0
    Cs(f):	82.183938	80.660522	1.5234159	0
    Cs(r):	-82.183938	-80.660522	-1.5234159	0

    writing force and moment coefficient files.

Courant Number mean: 0.088249086 max: 0.89901954
deltaT = 1.8054497e-06
Time = 0.00205394

PIMPLE: iteration 1
diagonal:  Solving for rho, Initial residual = 0, Final residual = 0, No Iterations 0
DILUPBiCGStab:  Solving for Ux, Initial residual = 0.00091511309, Final residual = 4.8672946e-07, No Iterations 2
DILUPBiCGStab:  Solving for Uy, Initial residual = 0.0016463135, Final residual = 5.9269912e-07, No Iterations 2
DILUPBiCGStab:  Solving for e, Initial residual = 0.0091018515, Final residual = 5.8155598e-07, No Iterations 4
limitTemperature=limitT, Type=Lower, LimitedCells=0, CellsPercent=0, Tmin=101, UnlimitedTmin=291.2397
limitTemperature=limitT, Type=Upper, LimitedCells=0, CellsPercent=0, Tmax=1000, UnlimitedTmax=294.22765
GAMG:  Solving for p, Initial residual = 0.012799026, Final residual = 0.00011605558, No Iterations 2
GAMG:  Solving for p, Initial residual = 0.00012573085, Final residual = 1.1877307e-06, No Iterations 24
diagonal:  Solving for rho, Initial residual = 0, Final residual = 0, No Iterations 0
time step continuity errors : sum local = 3.899187e-09, global = 1.9930817e-09, cumulative = 4.5281726e-07
GAMG:  Solving for p, Initial residual = 0.00027125737, Final residual = 2.591408e-06, No Iterations 12
GAMG:  Solving for p, Initial residual = 7.303151e-06, Final residual = 9.7686251e-07, No Iterations 6
diagonal:  Solving for rho, Initial residual = 0, Final residual = 0, No Iterations 0
time step continuity errors : sum local = 3.2064307e-09, global = 1.1837155e-09, cumulative = 4.5400097e-07
DILUPBiCGStab:  Solving for omega, Initial residual = 2.1592279e-06, Final residual = 2.8192739e-08, No Iterations 1
DILUPBiCGStab:  Solving for k, Initial residual = 8.5240729e-05, Final residual = 3.357879e-07, No Iterations 2
ExecutionTime = 19.26 s  ClockTime = 19 s

forceCoeffs forces write:
    Coefficient	Total	Pressure	Viscous	Internal
    Cd:	1.918622	1.8830074	0.035614684	0
    Cd(f):	-13.991647	-13.769071	-0.22257599	0
    Cd(r):	15.910269	15.652078	0.25819068	0
    Cl:	0.34977827	0.34415449	0.0056237781	0
    Cl(f):	0.17618161	0.17207725	0.0041043597	0
    Cl(r):	0.17359666	0.17207725	0.0015194184	0
    CmPitch:	0.0012924706	-4.829283e-11	0.0012924707	0
    CmRoll:	-14.950958	-14.710574	-0.24038334	0
    CmYaw:	82.009774	80.487456	1.5223177	0
    Cs:	-4.1623538e-21	-2.9700144e-20	2.553779e-20	0
    Cs(f):	82.009774	80.487456	1.5223177	0
    Cs(r):	-82.009774	-80.487456	-1.5223177	0

    writing force and moment coefficient files.

Courant Number mean: 0.088409496 max: 0.90057963
deltaT = 1.8054497e-06
Time = 0.00205575

PIMPLE: iteration 1
diagonal:  Solving for rho, Initial residual = 0, Final residual = 0, No Iterations 0
DILUPBiCGStab:  Solving for Ux, Initial residual = 0.00091149506, Final residual = 4.9844482e-07, No Iterations 2
DILUPBiCGStab:  Solving for Uy, Initial residual = 0.0016434808, Final residual = 5.9602724e-07, No Iterations 2
DILUPBiCGStab:  Solving for e, Initial residual = 0.0091116406, Final residual = 5.4315712e-07, No Iterations 4
limitTemperature=limitT, Type=Lower, LimitedCells=0, CellsPercent=0, Tmin=101, UnlimitedTmin=291.23838
[...]
time step continuity errors : sum local = 4.512778e-09, global = 1.7974343e-10, cumulative = 4.6269951e-07
DILUPBiCGStab:  Solving for omega, Initial residual = 1.7150877e-06, Final residual = 2.1846106e-08, No Iterations 1
DILUPBiCGStab:  Solving for k, Initial residual = 7.9598811e-05, Final residual = 7.1112118e-07, No Iterations 1
ExecutionTime = 90.78 s  ClockTime = 91 s

forceCoeffs forces write:
    Coefficient	Total	Pressure	Viscous	Internal
    Cd:	2.1116204	2.0753376	0.036282808	0
    Cd(f):	-14.95079	-14.690274	-0.26051554	0
    Cd(r):	17.06241	16.765612	0.29679835	0
    Cl:	0.37447507	0.36795588	0.0065191907	0
    Cl(f):	0.18853281	0.18397794	0.0045548712	0
    Cl(r):	0.18594226	0.18397794	0.0019643195	0
    CmPitch:	0.0012952759	1.9229464e-11	0.0012952758	0
    CmRoll:	-16.0066	-15.727943	-0.27865694	0
    CmYaw:	90.259314	88.708438	1.550876	0
    Cs:	5.6723051e-21	-2.9555773e-20	3.5228078e-20	0
    Cs(f):	90.259314	88.708438	1.550876	0
    Cs(r):	-90.259314	-88.708438	-1.550876	0

    writing force and moment coefficient files.

Courant Number mean: 0.087156277 max: 0.90116113
deltaT = 1.7722801e-06
Time = 0.00227337

PIMPLE: iteration 1
diagonal:  Solving for rho, Initial residual = 0, Final residual = 0, No Iterations 0
DILUPBiCGStab:  Solving for Ux, Initial residual = 0.00086048785, Final residual = 4.6036195e-07, No Iterations 2
DILUPBiCGStab:  Solving for Uy, Initial residual = 0.0011567321, Final residual = 6.3307727e-07, No Iterations 2
DILUPBiCGStab:  Solving for e, Initial residual = 0.011136577, Final residual = 8.2089637e-07, No Iterations 4
limitTemperature=limitT, Type=Lower, LimitedCells=0, CellsPercent=0, Tmin=101, UnlimitedTmin=291.4694
limitTemperature=limitT, Type=Upper, LimitedCells=0, CellsPercent=0, Tmax=1000, UnlimitedTmax=293.86056
GAMG:  Solving for p, Initial residual = 0.0077686075, Final residual = 4.9347359e-05, No Iterations 2
GAMG:  Solving for p, Initial residual = 5.2408165e-05, Final residual = 8.6003263e-07, No Iterations 20
diagonal:  Solving for rho, Initial residual = 0, Final residual = 0, No Iterations 0
time step continuity errors : sum local = 4.4996446e-09, global = -2.3794365e-09, cumulative = 4.6032007e-07
GAMG:  Solving for p, Initial residual = 0.00011696718, Final residual = 1.1297769e-06, No Iterations 10
GAMG:  Solving for p, Initial residual = 2.8825754e-06, Final residual = 9.4890878e-07, No Iterations 2
diagonal:  Solving for rho, Initial residual = 0, Final residual = 0, No Iterations 0
time step continuity errors : sum local = 4.9657903e-09, global = -1.6306347e-10, cumulative = 4.6015701e-07
DILUPBiCGStab:  Solving for omega, Initial residual = 1.8442526e-06, Final residual = 2.1237622e-08, No Iterations 1
DILUPBiCGStab:  Solving for k, Initial residual = 7.9408723e-05, Final residual = 7.0573416e-07, No Iterations 1
ExecutionTime = 91.32 s  ClockTime = 92 s

forceCoeffs forces write:
    Coefficient	Total	Pressure	Viscous	Internal
    Cd:	2.1088158	2.072527	0.0362888	0
    Cd(f):	-14.899741	-14.638521	-0.26122042	0
    Cd(r):	17.008557	16.711048	0.29750922	0
    Cl:	0.37324797	0.36671222	0.0065357514	0
    Cl(f):	0.18792531	0.18335611	0.0045691985	0
    Cl(r):	0.18532266	0.18335611	0.0019665529	0
    CmPitch:	0.0013013228	3.0649706e-11	0.0013013228	0
    CmRoll:	-15.954149	-15.674784	-0.27936482	0
    CmYaw:	90.139436	88.588304	1.5511321	0
    Cs:	-4.9728681e-21	-2.952436e-20	2.4551492e-20	0
    Cs(f):	90.139436	88.588304	1.5511321	0
    Cs(r):	-90.139436	-88.588304	-1.5511321	0

    writing force and moment coefficient files.

Courant Number mean: 0.086943302 max: 0.89912617
deltaT = 1.7722801e-06
Time = 0.00227514

PIMPLE: iteration 1
diagonal:  Solving for rho, Initial residual = 0, Final residual = 0, No Iterations 0
DILUPBiCGStab:  Solving for Ux, Initial residual = 0.00086369455, Final residual = 4.5305659e-07, No Iterations 2
DILUPBiCGStab:  Solving for Uy, Initial residual = 0.0011669278, Final residual = 6.0022329e-07, No Iterations 2
DILUPBiCGStab:  Solving for e, Initial residual = 0.011074421, Final residual = 7.9798416e-07, No Iterations 4
limitTemperature=limitT, Type=Lower, LimitedCells=0, CellsPercent=0, Tmin=101, UnlimitedTmin=291.32217
limitTemperature=limitT, Type=Upper, LimitedCells=0, CellsPercent=0, Tmax=1000, UnlimitedTmax=293.84995
GAMG:  Solving for p, Initial residual = 0.0076910137, Final residual = 5.0815672e-05, No Iterations 2
GAMG:  Solving for p, Initial residual = 5.398045e-05, Final residual = 8.8376114e-07, No Iterations 20
diagonal:  Solving for rho, Initial residual = 0, Final residual = 0, No Iterations 0
time step continuity errors : sum local = 4.6519285e-09, global = -2.489646e-09, cumulative = 4.5766736e-07
GAMG:  Solving for p, Initial residual = 0.00011621227, Final residual = 1.0612916e-06, No Iterations 10
GAMG:  Solving for p, Initial residual = 2.8153915e-06, Final residual = 9.8559603e-07, No Iterations 1
diagonal:  Solving for rho, Initial residual = 0, Final residual = 0, No Iterations 0
time step continuity errors : sum local = 5.1890187e-09, global = 1.354356e-10, cumulative = 4.578028e-07
DILUPBiCGStab:  Solving for omega, Initial residual = 1.6615565e-06, Final residual = 2.0361686e-08, No Iterations 1
DILUPBiCGStab:  Solving for k, Initial residual = 7.9390192e-05, Final residual = 7.0444158e-07, No Iterations 1
ExecutionTime = 91.89 s  ClockTime = 92 s

forceCoeffs forces write:
    Coefficient	Total	Pressure	Viscous	Internal
    Cd:	2.1058377	2.0695404	0.036297357	0
    Cd(f):	-14.695565	-14.43452	-0.26104553	0
    Cd(r):	16.801403	16.50406	0.29734288	0
    Cl:	0.36843644	0.36190468	0.00653176	0
    Cl(f):	0.18552781	0.18095234	0.0045754707	0
    Cl(r):	0.18290863	0.18095234	0.0019562893	0
    CmPitch:	0.0013095907	-7.012887e-12	0.0013095907	0
    CmRoll:	-15.748484	-15.46929	-0.27919421	0
    CmYaw:	90.012139	88.460641	1.5514979	0
    Cs:	1.3176379e-21	-2.9538487e-20	3.0856125e-20	0
    Cs(f):	90.012139	88.460641	1.5514979	0
    Cs(r):	-90.012139	-88.460641	-1.5514979	0

    writing force and moment coefficient files.

Courant Number mean: 0.086942342 max: 0.89927573
deltaT = 1.7722801e-06
Time = 0.00227691

PIMPLE: iteration 1
diagonal:  Solving for rho, Initial residual = 0, Final residual = 0, No Iterations 0
DILUPBiCGStab:  Solving for Ux, Initial residual = 0.00086662558, Final residual = 4.7083078e-07, No Iterations 2
DILUPBiCGStab:  Solving for Uy, Initial residual = 0.001176751, Final residual = 5.8542473e-07, No Iterations 2
DILUPBiCGStab:  Solving for e, Initial residual = 0.011008226, Final residual = 8.183172e-07, No Iterations 4
limitTemperature=limitT, Type=Lower, LimitedCells=0, CellsPercent=0, Tmin=101, UnlimitedTmin=291.40679
limitTemperature=limitT, Type=Upper, LimitedCells=0, CellsPercent=0, Tmax=1000, UnlimitedTmax=293.83936
GAMG:  Solving for p, Initial residual = 0.0076151988, Final residual = 4.8548551e-05, No Iterations 2
GAMG:  Solving for p, Initial residual = 5.162433e-05, Final residual = 9.9218075e-07, No Iterations 18
diagonal:  Solving for rho, Initial residual = 0, Final residual = 0, No Iterations 0
time step continuity errors : sum local = 5.253471e-09, global = -2.5848648e-09, cumulative = 4.5521793e-07
GAMG:  Solving for p, Initial residual = 0.00011787124, Final residual = 1.1231053e-06, No Iterations 10
GAMG:  Solving for p, Initial residual = 2.89668e-06, Final residual = 9.8870163e-07, No Iterations 1
diagonal:  Solving for rho, Initial residual = 0, Final residual = 0, No Iterations 0
time step continuity errors : sum local = 5.2358407e-09, global = 2.7544762e-10, cumulative = 4.5549338e-07
DILUPBiCGStab:  Solving for omega, Initial residual = 1.6588253e-06, Final residual = 2.1133671e-08, No Iterations 1
DILUPBiCGStab:  Solving for k, Initial residual = 7.9372603e-05, Final residual = 7.0100551e-07, No Iterations 1
ExecutionTime = 92.36 s  ClockTime = 93 s

forceCoeffs forces write:
    Coefficient	Total	Pressure	Viscous	Internal
    Cd:	2.1027223	2.0664283	0.03629401	0
    Cd(f):	-14.470621	-14.210243	-0.26037773	0
    Cd(r):	16.573343	16.276671	0.29667174	0
    Cl:	0.3631374	0.35662131	0.0065160977	0
    Cl(f):	0.18288989	0.17831065	0.0045792331	0
    Cl(r):	0.18024752	0.17831065	0.0019368645	0
    CmPitch:	0.0013211843	-3.2869842e-11	0.0013211843	0
    CmRoll:	-15.521982	-15.243457	-0.27852473	0
    CmYaw:	89.878973	88.327618	1.5513548	0
    Cs:	6.1587223e-21	-2.9561724e-20	3.5720446e-20	0
    Cs(f):	89.878973	88.327618	1.5513548	0
    Cs(r):	-89.878973	-88.327618	-1.5513548	0

    writing force and moment coefficient files.

Courant Number mean: 0.086941266 max: 0.89941731
deltaT = 1.7722801e-06
Time = 0.00227868

PIMPLE: iteration 1
diagonal:  Solving for rho, Initial residual = 0, Final residual = 0, No Iterations 0
DILUPBiCGStab:  Solving for Ux, Initial residual = 0.0008694301, Final residual = 4.6908711e-07, No Iterations 2
DILUPBiCGStab:  Solving for Uy, Initial residual = 0.001185885, Final residual = 5.6146284e-07, No Iterations 2
DILUPBiCGStab:  Solving for e, Initial residual = 0.010939899, Final residual = 7.8539252e-07, No Iterations 4
limitTemperature=limitT, Type=Lower, LimitedCells=0, CellsPercent=0, Tmin=101, UnlimitedTmin=291.38982
limitTemperature=limitT, Type=Upper, LimitedCells=0, CellsPercent=0, Tmax=1000, UnlimitedTmax=293.82882
GAMG:  Solving for p, Initial residual = 0.0075305457, Final residual = 5.383063e-05, No Iterations 2
GAMG:  Solving for p, Initial residual = 5.6906969e-05, Final residual = 8.7555855e-07, No Iterations 20
diagonal:  Solving for rho, Initial residual = 0, Final residual = 0, No Iterations 0
time step continuity errors : sum local = 4.6615596e-09, global = -2.3458152e-09, cumulative = 4.5314756e-07
GAMG:  Solving for p, Initial residual = 0.00011278903, Final residual = 9.5962458e-07, No Iterations 12
GAMG:  Solving for p, Initial residual = 2.8313135e-06, Final residual = 9.1495751e-07, No Iterations 1
diagonal:  Solving for rho, Initial residual = 0, Final residual = 0, No Iterations 0
time step continuity errors : sum local = 4.8727266e-09, global = 1.8884251e-10, cumulative = 4.5333641e-07
DILUPBiCGStab:  Solving for omega, Initial residual = 1.8052275e-06, Final residual = 2.2585299e-08, No Iterations 1
DILUPBiCGStab:  Solving for k, Initial residual = 7.9365585e-05, Final residual = 7.0116579e-07, No Iterations 1
ExecutionTime = 92.87 s  ClockTime = 93 s

forceCoeffs forces write:
    Coefficient	Total	Pressure	Viscous	Internal
    Cd:	2.0995867	2.0632658	0.036320975	0
    Cd(f):	-14.292878	-14.034	-0.25887799	0
    Cd(r):	16.392465	16.097266	0.29519897	0
    Cl:	0.35894244	0.35246111	0.0064813267	0
    Cl(f):	0.18076591	0.17623055	0.0045353531	0
    Cl(r):	0.17817653	0.17623055	0.0019459736	0
    CmPitch:	0.0012946898	1.7839605e-11	0.0012946898	0
    CmRoll:	-15.342672	-15.065633	-0.27703848	0
    CmYaw:	89.744947	88.192439	1.5525074	0
    Cs:	5.4458052e-21	-2.9545807e-20	3.4991613e-20	0
    Cs(f):	89.744947	88.192439	1.5525074	0
    Cs(r):	-89.744947	-88.192439	-1.5525074	0

    writing force and moment coefficient files.

Courant Number mean: 0.086940153 max: 0.89955116
deltaT = 1.7722801e-06
Time = 0.00228045

PIMPLE: iteration 1
diagonal:  Solving for rho, Initial residual = 0, Final residual = 0, No Iterations 0
DILUPBiCGStab:  Solving for Ux, Initial residual = 0.00087234882, Final residual = 4.5315601e-07, No Iterations 2
DILUPBiCGStab:  Solving for Uy, Initial residual = 0.0011951818, Final residual = 5.405114e-07, No Iterations 2
DILUPBiCGStab:  Solving for e, Initial residual = 0.010868243, Final residual = 8.2315373e-07, No Iterations 4
limitTemperature=limitT, Type=Lower, LimitedCells=0, CellsPercent=0, Tmin=101, UnlimitedTmin=291.37232
limitTemperature=limitT, Type=Upper, LimitedCells=0, CellsPercent=0, Tmax=1000, UnlimitedTmax=293.81832
GAMG:  Solving for p, Initial residual = 0.0074615377, Final residual = 4.9565079e-05, No Iterations 2
GAMG:  Solving for p, Initial residual = 5.2726596e-05, Final residual = 8.9705941e-07, No Iterations 20
diagonal:  Solving for rho, Initial residual = 0, Final residual = 0, No Iterations 0
time step continuity errors : sum local = 4.8021361e-09, global = -2.5237019e-09, cumulative = 4.508127e-07
GAMG:  Solving for p, Initial residual = 0.00011780516, Final residual = 1.1694881e-06, No Iterations 10
GAMG:  Solving for p, Initial residual = 2.9510716e-06, Final residual = 8.5496048e-07, No Iterations 3
diagonal:  Solving for rho, Initial residual = 0, Final residual = 0, No Iterations 0
time step continuity errors : sum local = 4.5777266e-09, global = 3.7633522e-10, cumulative = 4.5118904e-07
DILUPBiCGStab:  Solving for omega, Initial residual = 1.8333126e-06, Final residual = 2.1184353e-08, No Iterations 1
DILUPBiCGStab:  Solving for k, Initial residual = 7.9362363e-05, Final residual = 7.0063309e-07, No Iterations 1
ExecutionTime = 93.47 s  ClockTime = 94 s

forceCoeffs forces write:
    Coefficient	Total	Pressure	Viscous	Internal
    Cd:	2.0975769	2.061255	0.036321847	0
    Cd(f):	-14.300118	-14.040795	-0.25932348	0
    Cd(r):	16.397695	16.10205	0.29564533	0
    Cl:	0.3590883	0.35259654	0.0064917591	0
    Cl(f):	0.18084824	0.17629827	0.0045499691	0
    Cl(r):	0.17824006	0.17629827	0.0019417899	0
    CmPitch:	0.0013040896	3.3554206e-11	0.0013040896	0
    CmRoll:	-15.348906	-15.071422	-0.2774844	0
    CmYaw:	89.659037	88.106492	1.5525447	0
    Cs:	-3.9366602e-21	-2.951178e-20	2.557512e-20	0
    Cs(f):	89.659037	88.106492	1.5525447	0
    Cs(r):	-89.659037	-88.106492	-1.5525447	0

    writing force and moment coefficient files.

Courant Number mean: 0.08693899 max: 0.89967743
deltaT = 1.7722801e-06
Time = 0.00228223

PIMPLE: iteration 1
diagonal:  Solving for rho, Initial residual = 0, Final residual = 0, No Iterations 0
DILUPBiCGStab:  Solving for Ux, Initial residual = 0.00087506517, Final residual = 4.4997116e-07, No Iterations 2
DILUPBiCGStab:  Solving for Uy, Initial residual = 0.0012031369, Final residual = 5.2382128e-07, No Iterations 2
DILUPBiCGStab:  Solving for e, Initial residual = 0.010796034, Final residual = 7.8237938e-07, No Iterations 4
limitTemperature=limitT, Type=Lower, LimitedCells=0, CellsPercent=0, Tmin=101, UnlimitedTmin=291.33871
limitTemperature=limitT, Type=Upper, LimitedCells=0, CellsPercent=0, Tmax=1000, UnlimitedTmax=293.80789
GAMG:  Solving for p, Initial residual = 0.0073832636, Final residual = 5.1117612e-05, No Iterations 2
GAMG:  Solving for p, Initial residual = 5.4312651e-05, Final residual = 8.6164362e-07, No Iterations 20
diagonal:  Solving for rho, Initial residual = 0, Final residual = 0, No Iterations 0
time step continuity errors : sum local = 4.6371506e-09, global = -2.4867456e-09, cumulative = 4.4870229e-07
GAMG:  Solving for p, Initial residual = 0.00011506213, Final residual = 1.1185176e-06, No Iterations 10
GAMG:  Solving for p, Initial residual = 2.8859298e-06, Final residual = 8.8591702e-07, No Iterations 2
diagonal:  Solving for rho, Initial residual = 0, Final residual = 0, No Iterations 0
time step continuity errors : sum local = 4.7685309e-09, global = -3.5824442e-10, cumulative = 4.4834405e-07
DILUPBiCGStab:  Solving for omega, Initial residual = 1.6245172e-06, Final residual = 2.0154437e-08, No Iterations 1
DILUPBiCGStab:  Solving for k, Initial residual = 7.9342877e-05, Final residual = 6.9948554e-07, No Iterations 1
ExecutionTime = 94.01 s  ClockTime = 94 s

forceCoeffs forces write:
    Coefficient	Total	Pressure	Viscous	Internal
    Cd:	2.0927693	2.0564416	0.036327659	0
    Cd(f):	-13.989843	-13.730725	-0.25911855	0
    Cd(r):	16.082612	15.787166	0.29544621	0
    Cl:	0.35177317	0.34528614	0.0064870327	0
    Cl(f):	0.17719646	0.17264307	0.0045533966	0
    Cl(r):	0.1745767	0.17264307	0.0019336362	0
    CmPitch:	0.0013098802	-7.9397103e-12	0.0013098802	0
    CmRoll:	-15.036228	-14.758945	-0.27728238	0
    CmYaw:	89.45354	87.900747	1.5527931	0
    Cs:	3.8902338e-22	-2.9525827e-20	2.9914851e-20	0
    Cs(f):	89.45354	87.900747	1.5527931	0
    Cs(r):	-89.45354	-87.900747	-1.5527931	0

    writing force and moment coefficient files.

Courant Number mean: 0.08693777 max: 0.89979597
deltaT = 1.7722801e-06
Time = 0.002284

PIMPLE: iteration 1
diagonal:  Solving for rho, Initial residual = 0, Final residual = 0, No Iterations 0
DILUPBiCGStab:  Solving for Ux, Initial residual = 0.00087722054, Final residual = 4.6443633e-07, No Iterations 2
DILUPBiCGStab:  Solving for Uy, Initial residual = 0.0012106274, Final residual = 5.1213507e-07, No Iterations 2
DILUPBiCGStab:  Solving for e, Initial residual = 0.010719804, Final residual = 8.2581586e-07, No Iterations 4
limitTemperature=limitT, Type=Lower, LimitedCells=0, CellsPercent=0, Tmin=101, UnlimitedTmin=291.35548
limitTemperature=limitT, Type=Upper, LimitedCells=0, CellsPercent=0, Tmax=1000, UnlimitedTmax=293.79753
GAMG:  Solving for p, Initial residual = 0.0073069173, Final residual = 5.0250247e-05, No Iterations 2
GAMG:  Solving for p, Initial residual = 5.3353503e-05, Final residual = 9.663778e-07, No Iterations 18
diagonal:  Solving for rho, Initial residual = 0, Final residual = 0, No Iterations 0
time step continuity errors : sum local = 5.2271182e-09, global = -2.7172151e-09, cumulative = 4.4562683e-07
GAMG:  Solving for p, Initial residual = 0.00011406139, Final residual = 1.0995003e-06, No Iterations 10
GAMG:  Solving for p, Initial residual = 2.8986491e-06, Final residual = 9.7606903e-07, No Iterations 1
diagonal:  Solving for rho, Initial residual = 0, Final residual = 0, No Iterations 0
time step continuity errors : sum local = 5.2804133e-09, global = 2.3836733e-10, cumulative = 4.458652e-07
DILUPBiCGStab:  Solving for omega, Initial residual = 1.548477e-06, Final residual = 2.1512975e-08, No Iterations 1
DILUPBiCGStab:  Solving for k, Initial residual = 7.9322868e-05, Final residual = 6.9622234e-07, No Iterations 1
ExecutionTime = 94.5 s  ClockTime = 95 s

forceCoeffs forces write:
    Coefficient	Total	Pressure	Viscous	Internal
    Cd:	2.0892012	2.0528933	0.036307923	0
    Cd(f):	-13.751511	-13.493102	-0.2584091	0
    Cd(r):	15.840712	15.545995	0.29471703	0
    Cl:	0.34615564	0.33968543	0.0064702043	0
    Cl(f):	0.17439321	0.16984272	0.004550496	0
    Cl(r):	0.17176243	0.16984272	0.0019197084	0
    CmPitch:	0.0013153938	-3.4051299e-11	0.0013153938	0
    CmRoll:	-14.796111	-14.519548	-0.27656306	0
    CmYaw:	89.301026	87.749076	1.5519495	0
    Cs:	4.6010001e-21	-2.9552933e-20	3.4153933e-20	0
    Cs(f):	89.301026	87.749076	1.5519495	0
    Cs(r):	-89.301026	-87.749076	-1.5519495	0

    writing force and moment coefficient files.

Courant Number mean: 0.086936494 max: 0.89990673
deltaT = 1.7722801e-06
Time = 0.00228577

PIMPLE: iteration 1
diagonal:  Solving for rho, Initial residual = 0, Final residual = 0, No Iterations 0
DILUPBiCGStab:  Solving for Ux, Initial residual = 0.00087970239, Final residual = 4.5659068e-07, No Iterations 2
DILUPBiCGStab:  Solving for Uy, Initial residual = 0.0012177909, Final residual = 4.968431e-07, No Iterations 2
DILUPBiCGStab:  Solving for e, Initial residual = 0.010645909, Final residual = 7.7344512e-07, No Iterations 4
limitTemperature=limitT, Type=Lower, LimitedCells=0, CellsPercent=0, Tmin=101, UnlimitedTmin=291.43683
limitTemperature=limitT, Type=Upper, LimitedCells=0, CellsPercent=0, Tmax=1000, UnlimitedTmax=293.78727
GAMG:  Solving for p, Initial residual = 0.0072337219, Final residual = 5.5529309e-05, No Iterations 2
GAMG:  Solving for p, Initial residual = 5.8697702e-05, Final residual = 8.1081061e-07, No Iterations 20
diagonal:  Solving for rho, Initial residual = 0, Final residual = 0, No Iterations 0
time step continuity errors : sum local = 4.4062464e-09, global = -2.2936954e-09, cumulative = 4.4357151e-07
GAMG:  Solving for p, Initial residual = 0.00011193938, Final residual = 1.0934001e-06, No Iterations 11
GAMG:  Solving for p, Initial residual = 2.9926803e-06, Final residual = 9.5977813e-07, No Iterations 1
